download/pglib-opf-master/api/pglib_opf_case6470_rte__api.m
%%%%%%%%%%%%%%%%%%%%%%%%%%%%%%%%%%%%%%%%%%%%%%%%%%%%%%%%%%%%%%%%%%%%%%%%%%%
%%%%                                                                  %%%%%
%%%%    IEEE PES Power Grid Library - Optimal Power Flow - v19.05     %%%%%
%%%%          (https://github.com/power-grid-lib/pglib-opf)           %%%%%
%%%%             Benchmark Group - Active Power Increase              %%%%%
%%%%                         08 - May - 2019                          %%%%%
%%%%                                                                  %%%%%
%%%%%%%%%%%%%%%%%%%%%%%%%%%%%%%%%%%%%%%%%%%%%%%%%%%%%%%%%%%%%%%%%%%%%%%%%%%
function mpc = pglib_opf_case6470_rte__api
mpc.version = '2';
mpc.baseMVA = 100.0;

%% bus data
%	bus_i	type	Pd	Qd	Gs	Bs	area	Vm	Va	baseKV	zone	Vmax	Vmin
mpc.bus = [
	1	 1	 0.0	 0.0	 0.0	 0.0	 1	    0.94444	    0.00000	 45.0	 1	    1.00000	    0.88889;
	2	 1	 0.0	 0.0	 0.0	 0.0	 1	    1.00000	    0.00000	 63.0	 1	    1.06349	    0.93651;
	3	 1	 12.50	 -0.70	 0.0	 0.0	 1	    1.01588	    0.00000	 63.0	 1	    1.07937	    0.95238;
	4	 1	 44.70	 -0.90	 0.0	 0.0	 1	    1.01111	    0.00000	 90.0	 1	    1.08889	    0.93333;
	5	 1	 14.45	 0.10	 0.0	 0.0	 1	    1.00794	    0.00000	 63.0	 1	    1.06349	    0.95238;
	6	 1	 15.65	 4.30	 0.0	 0.0	 1	    1.00000	    0.00000	 63.0	 1	    1.07937	    0.92063;
	7	 1	 1.45	 0.80	 0.0	 0.0	 1	    1.00000	    0.00000	 63.0	 1	    1.07937	    0.92063;
	8	 1	 31.07	 4.90	 0.0	 0.0	 1	    0.98889	    0.00000	 225.0	 1	    1.08889	    0.88889;
	9	 1	 12.90	 0.00	 0.0	 0.0	 1	    1.00000	    0.00000	 63.0	 1	    1.06349	    0.93651;
	10	 1	 0.0	 0.0	 0.0	 0.0	 1	    1.00000	    0.00000	 90.0	 1	    1.07778	    0.92222;
	11	 1	 34.68	 1.10	 0.0	 0.0	 1	    1.00000	    0.00000	 90.0	 1	    1.07778	    0.92222;
	12	 1	 0.0	 0.0	 0.0	 0.0	 1	    1.01588	    0.00000	 63.0	 1	    1.07937	    0.95238;
	13	 1	 0.0	 0.0	 0.0	 0.0	 1	    1.07895	    0.00000	 380.0	 1	    1.10263	    1.05526;
	14	 1	 62.02	 1.90	 0.0	 0.0	 1	    1.02778	    0.00000	 90.0	 1	    1.07778	    0.97778;
	15	 1	 0.0	 0.0	 0.0	 0.0	 1	    1.00000	    0.00000	 63.0	 1	    1.07937	    0.92063;
	16	 1	 16.62	 4.10	 0.0	 0.0	 1	    1.00000	    0.00000	 63.0	 1	    1.07937	    0.92063;
	17	 1	 15.77	 0.20	 0.0	 0.0	 1	    1.02222	    0.00000	 90.0	 1	    1.06667	    0.97778;
	18	 1	 0.0	 0.0	 0.0	 0.0	 1	    0.94444	    0.00000	 45.0	 1	    1.00000	    0.88889;
	19	 1	 1.00	 0.00	 0.0	 0.0	 1	    1.00000	    0.00000	 63.0	 1	    1.06349	    0.93651;
	20	 1	 0.90	 -21.50	 0.0	 0.0	 1	    0.94444	    0.00000	 45.0	 1	    1.00000	    0.88889;
	21	 1	 8.30	 -3.30	 0.0	 0.0	 1	    1.02222	    0.00000	 90.0	 1	    1.06667	    0.97778;
	22	 1	 21.68	 1.10	 0.0	 0.0	 1	    1.01588	    0.00000	 63.0	 1	    1.07937	    0.95238;
	23	 1	 23.12	 3.40	 0.0	 0.0	 1	    1.00000	    0.00000	 63.0	 1	    1.06349	    0.93651;
	24	 1	 16.10	 -1.60	 0.0	 0.0	 1	    1.03333	    0.00000	 90.0	 1	    1.11111	    0.95556;
	25	 1	 59.90	 -3.20	 0.0	 0.0	 1	    1.02222	    0.00000	 90.0	 1	    1.10000	    0.94444;
	26	 1	 42.27	 8.10	 0.0	 0.0	 1	    1.02222	    0.00000	 90.0	 1	    1.06667	    0.97778;
	27	 1	 0.0	 0.0	 0.0	 0.0	 1	    1.04444	    0.00000	 225.0	 1	    1.08444	    1.00444;
	28	 1	 0.84	 0.20	 0.0	 0.0	 1	    1.01588	    0.00000	 63.0	 1	    1.07937	    0.95238;
	29	 1	 72.37	 2.70	 0.0	 0.0	 1	    1.01587	    0.00000	 63.0	 1	    1.06349	    0.96825;
	30	 1	 33.50	 -0.90	 0.0	 0.0	 1	    1.01111	    0.00000	 90.0	 1	    1.08889	    0.93333;
	31	 1	 0.0	 0.0	 0.0	 0.0	 1	    1.00000	    0.00000	 63.0	 1	    1.06349	    0.93651;
	32	 1	 0.0	 0.0	 0.0	 0.0	 1	    1.00334	    0.00000	 150.0	 1	    1.10667	    0.90000;
	33	 1	 0.0	 0.0	 0.0	 0.0	 1	    1.01111	    0.00000	 225.0	 1	    1.08889	    0.93333;
	34	 1	 0.0	 0.0	 0.0	 0.0	 1	    1.01111	    0.00000	 225.0	 1	    1.08889	    0.93333;
	35	 1	 0.0	 0.0	 0.0	 0.0	 1	    1.07237	    0.00000	 380.0	 1	    1.10526	    1.03947;
	36	 1	 0.0	 0.0	 0.0	 0.0	 1	    1.07237	    0.00000	 380.0	 1	    1.10526	    1.03947;
	37	 1	 3.85	 4.30	 0.0	 0.0	 1	    1.00000	    0.00000	 63.0	 1	    1.07937	    0.92063;
	38	 1	 6.00	 -2.00	 0.0	 0.0	 1	    1.01587	    0.00000	 63.0	 1	    1.09524	    0.93651;
	39	 1	 41.00	 -3.30	 0.0	 0.0	 1	    1.02778	    0.00000	 90.0	 1	    1.07778	    0.97778;
	40	 1	 39.26	 0.50	 0.0	 0.0	 1	    1.02778	    0.00000	 90.0	 1	    1.07778	    0.97778;
	41	 1	 0.0	 0.0	 0.0	 0.0	 1	    1.04666	    0.00000	 225.0	 1	    1.08889	    1.00444;
	42	 1	 0.0	 0.0	 0.0	 0.0	 1	    1.04249	    0.00000	 63.0	 1	    1.13259	    0.95238;
	43	 1	 4.34	 2.00	 0.0	 0.0	 1	    1.02778	    0.00000	 90.0	 1	    1.07778	    0.97778;
	44	 1	 13.00	 -0.70	 0.0	 0.0	 1	    1.00794	    0.00000	 63.0	 1	    1.06349	    0.95238;
	45	 1	 4.70	 1.70	 0.0	 0.0	 1	    1.02222	    0.00000	 90.0	 1	    1.06667	    0.97778;
	46	 1	 0.0	 0.0	 0.0	 0.0	 1	    1.00000	    0.00000	 63.0	 1	    1.06349	    0.93651;
	47	 2	 0.0	 0.0	 0.0	 0.0	 1	    1.00000	    0.00000	 63.0	 1	    1.06349	    0.93651;
	48	 1	 43.95	 3.40	 0.0	 0.0	 1	    1.00000	    0.00000	 90.0	 1	    1.07778	    0.92222;
	49	 1	 8.80	 -1.70	 0.0	 0.0	 1	    1.00000	    0.00000	 63.0	 1	    1.06349	    0.93651;
	50	 1	 0.0	 0.0	 0.0	 0.0	 1	    1.00331	    0.00000	 63.0	 1	    1.07012	    0.93651;
	51	 1	 0.0	 0.0	 0.0	 0.0	 1	    1.01111	    0.00000	 225.0	 1	    1.08889	    0.93333;
	52	 1	 6.02	 2.40	 0.0	 0.0	 1	    1.02222	    0.00000	 90.0	 1	    1.06667	    0.97778;
	53	 1	 2.50	 -0.50	 0.0	 0.0	 1	    1.00000	    0.00000	 63.0	 1	    1.04762	    0.95238;
	54	 1	 -0.40	 -0.00	 0.0	 0.0	 1	    1.02222	    0.00000	 90.0	 1	    1.06667	    0.97778;
	55	 1	 45.28	 6.70	 0.0	 0.0	 1	    1.04666	    0.00000	 225.0	 1	    1.08889	    1.00444;
	56	 1	 62.74	 13.50	 0.0	 0.0	 1	    1.04666	    0.00000	 225.0	 1	    1.08889	    1.00444;
	57	 2	 0.0	 0.0	 0.0	 0.0	 1	    1.00000	    0.00000	 63.0	 1	    1.07937	    0.92063;
	58	 1	 157.27	 30.10	 0.0	 0.0	 1	    1.04666	    0.00000	 225.0	 1	    1.08889	    1.00444;
	59	 1	 6.14	 1.30	 0.0	 0.0	 1	    1.01588	    0.00000	 63.0	 1	    1.07937	    0.95238;
	60	 1	 0.0	 0.0	 0.0	 0.0	 1	    1.01588	    0.00000	 63.0	 1	    1.07937	    0.95238;
	61	 1	 47.56	 9.70	 0.0	 0.0	 1	    1.01588	    0.00000	 63.0	 1	    1.07937	    0.95238;
	62	 1	 0.0	 0.0	 0.0	 0.0	 1	    1.01588	    0.00000	 63.0	 1	    1.07937	    0.95238;
	63	 1	 19.03	 2.00	 0.0	 0.0	 1	    1.01588	    0.00000	 63.0	 1	    1.07937	    0.95238;
	64	 1	 75.14	 1.00	 0.0	 0.0	 1	    0.98889	    0.00000	 225.0	 1	    1.08889	    0.88889;
	65	 1	 13.25	 2.80	 0.0	 0.0	 1	    1.01588	    0.00000	 63.0	 1	    1.07937	    0.95238;
	66	 1	 13.20	 -7.90	 0.0	 0.0	 1	    1.00000	    0.00000	 63.0	 1	    1.06349	    0.93651;
	67	 1	 0.0	 0.0	 0.0	 0.0	 1	    1.00000	    0.00000	 63.0	 1	    1.07937	    0.92063;
	68	 1	 48.10	 -0.10	 0.0	 0.0	 1	    1.00000	    0.00000	 63.0	 1	    1.06349	    0.93651;
	69	 1	 19.30	 -2.70	 0.0	 0.0	 1	    1.00794	    0.00000	 63.0	 1	    1.06349	    0.95238;
	70	 1	 12.76	 2.70	 0.0	 0.0	 1	    1.01588	    0.00000	 63.0	 1	    1.07937	    0.95238;
	71	 1	 75.14	 14.90	 0.0	 0.0	 1	    1.00000	    0.00000	 63.0	 1	    1.04762	    0.95238;
	72	 1	 0.0	 0.0	 0.0	 0.0	 1	    1.04736	    0.00000	 225.0	 1	    1.09027	    1.00444;
	73	 1	 0.0	 0.0	 0.0	 0.0	 1	    1.04734	    0.00000	 225.0	 1	    1.09025	    1.00444;
	74	 1	 50.40	 -9.90	 0.0	 0.0	 1	    0.98889	    0.00000	 225.0	 1	    1.08889	    0.88889;
	75	 1	 26.85	 1.80	 0.0	 0.0	 1	    1.02254	    0.00000	 90.0	 1	    1.06730	    0.97778;
	76	 1	 2.60	 -0.40	 0.0	 0.0	 1	    1.03795	    0.00000	 225.0	 1	    1.08923	    0.98667;
	77	 1	 36.80	 -0.40	 0.0	 0.0	 1	    1.00000	    0.00000	 63.0	 1	    1.06349	    0.93651;
	78	 1	 0.0	 0.0	 0.0	 0.0	 1	    1.00000	    0.00000	 63.0	 1	    1.07937	    0.92063;
	79	 1	 0.0	 0.0	 0.0	 0.0	 1	    1.00000	    0.00000	 63.0	 1	    1.04762	    0.95238;
	80	 1	 38.89	 7.30	 0.0	 0.0	 1	    1.04666	    0.00000	 225.0	 1	    1.08889	    1.00444;
	81	 1	 43.71	 9.90	 0.0	 0.0	 1	    1.04666	    0.00000	 225.0	 1	    1.08889	    1.00444;
	82	 1	 14.09	 1.60	 0.0	 0.0	 1	    1.00000	    0.00000	 63.0	 1	    1.06349	    0.93651;
	83	 1	 93.32	 26.40	 0.0	 0.0	 1	    1.04666	    0.00000	 225.0	 1	    1.08889	    1.00444;
	84	 1	 -1.60	 -1.20	 0.0	 0.0	 1	    1.00000	    0.00000	 63.0	 1	    1.06349	    0.93651;
	85	 1	 2.10	 -2.10	 0.0	 0.0	 1	    1.00000	    0.00000	 63.0	 1	    1.06349	    0.93651;
	86	 1	 58.88	 3.60	 0.0	 0.0	 1	    1.02222	    0.00000	 90.0	 1	    1.06667	    0.97778;
	87	 1	 0.0	 0.0	 0.0	 0.0	 1	    1.01588	    0.00000	 63.0	 1	    1.07937	    0.95238;
	88	 1	 13.50	 -0.10	 0.0	 0.0	 1	    1.00000	    0.00000	 63.0	 1	    1.06349	    0.93651;
	89	 1	 30.59	 0.80	 0.0	 0.0	 1	    1.02778	    0.00000	 90.0	 1	    1.07778	    0.97778;
	90	 1	 0.40	 -1.40	 0.0	 0.0	 1	    0.94444	    0.00000	 45.0	 1	    1.00000	    0.88889;
	91	 1	 1.00	 0.00	 0.0	 0.0	 1	    0.94444	    0.00000	 45.0	 1	    1.00000	    0.88889;
	92	 1	 34.44	 3.20	 0.0	 0.0	 1	    1.01587	    0.00000	 63.0	 1	    1.06349	    0.96825;
	93	 1	 2.10	 -2.50	 0.0	 0.0	 1	    0.94444	    0.00000	 45.0	 1	    1.00000	    0.88889;
	94	 1	 17.50	 -4.30	 0.0	 0.0	 1	    1.02222	    0.00000	 90.0	 1	    1.06667	    0.97778;
	95	 1	 55.99	 7.60	 0.0	 0.0	 1	    1.02222	    0.00000	 90.0	 1	    1.06667	    0.97778;
	96	 1	 1.50	 -0.70	 0.0	 0.0	 1	    1.00000	    0.00000	 63.0	 1	    1.06349	    0.93651;
	97	 1	 67.92	 0.90	 0.0	 0.0	 1	    1.00000	    0.00000	 63.0	 1	    1.07937	    0.92063;
	98	 1	 7.40	 -1.30	 0.0	 0.0	 1	    1.01588	    0.00000	 63.0	 1	    1.07937	    0.95238;
	99	 1	 32.39	 3.10	 0.0	 0.0	 1	    1.01588	    0.00000	 63.0	 1	    1.07937	    0.95238;
	100	 1	 64.18	 8.60	 0.0	 0.0	 1	    1.00000	    0.00000	 63.0	 1	    1.06349	    0.93651;
	101	 1	 21.31	 0.50	 0.0	 0.0	 1	    1.00000	    0.00000	 63.0	 1	    1.06349	    0.93651;
	102	 2	 0.0	 0.0	 0.0	 0.0	 1	    1.01588	    0.00000	 63.0	 1	    1.07937	    0.95238;
	103	 1	 18.00	 -1.10	 0.0	 0.0	 1	    1.01588	    0.00000	 63.0	 1	    1.07937	    0.95238;
	104	 1	 0.0	 0.0	 0.0	 0.0	 1	    1.03778	    0.00000	 225.0	 1	    1.08889	    0.98667;
	105	 1	 42.75	 1.00	 0.0	 0.0	 1	    0.98889	    0.00000	 225.0	 1	    1.08889	    0.88889;
	106	 1	 59.97	 7.50	 0.0	 0.0	 1	    1.02222	    0.00000	 90.0	 1	    1.10000	    0.94444;
	107	 1	 93.44	 8.10	 0.0	 0.0	 1	    1.04666	    0.00000	 225.0	 1	    1.08444	    1.00889;
	108	 1	 12.60	 -0.40	 0.0	 0.0	 1	    1.02778	    0.00000	 90.0	 1	    1.07778	    0.97778;
	109	 1	 82.73	 10.90	 0.0	 0.0	 1	    1.00000	    0.00000	 63.0	 1	    1.06349	    0.93651;
	110	 1	 0.0	 0.0	 0.0	 0.0	 1	    1.01111	    0.00000	 225.0	 1	    1.08889	    0.93333;
	111	 1	 36.50	 -7.90	 0.0	 0.0	 1	    1.01587	    0.00000	 63.0	 1	    1.06349	    0.96825;
	112	 1	 0.0	 0.0	 0.0	 0.0	 1	    1.00000	    0.00000	 63.0	 1	    1.04762	    0.95238;
	113	 1	 0.0	 0.0	 0.0	 0.0	 1	    1.04666	    0.00000	 225.0	 1	    1.08889	    1.00444;
	114	 1	 10.80	 -0.00	 0.0	 0.0	 1	    1.00000	    0.00000	 63.0	 1	    1.06349	    0.93651;
	115	 1	 0.0	 0.0	 0.0	 0.0	 1	    1.07895	    0.00000	 380.0	 1	    1.10526	    1.05263;
	116	 1	 0.0	 0.0	 0.0	 0.0	 1	    1.07895	    0.00000	 380.0	 1	    1.10526	    1.05263;
	117	 1	 15.40	 -1.00	 0.0	 0.0	 1	    1.01588	    0.00000	 63.0	 1	    1.07937	    0.95238;
	118	 1	 2.41	 0.80	 0.0	 0.0	 1	    1.02368	    0.00000	 90.0	 1	    1.06958	    0.97778;
	119	 1	 44.80	 5.30	 0.0	 0.0	 1	    1.00000	    0.00000	 63.0	 1	    1.06349	    0.93651;
	120	 1	 17.00	 -3.20	 0.0	 0.0	 1	    1.00000	    0.00000	 63.0	 1	    1.06349	    0.93651;
	121	 1	 21.19	 3.90	 0.0	 0.0	 1	    1.00000	    0.00000	 63.0	 1	    1.07937	    0.92063;
	122	 2	 0.0	 0.0	 0.0	 0.0	 1	    1.01588	    0.00000	 63.0	 1	    1.07937	    0.95238;
	123	 1	 10.84	 2.60	 0.0	 0.0	 1	    1.01588	    0.00000	 63.0	 1	    1.07937	    0.95238;
	124	 1	 8.00	 -0.90	 0.0	 0.0	 1	    1.02222	    0.00000	 90.0	 1	    1.06667	    0.97778;
	125	 1	 10.50	 -0.50	 0.0	 0.0	 1	    1.01588	    0.00000	 63.0	 1	    1.07937	    0.95238;
	126	 1	 0.30	 -0.10	 0.0	 0.0	 1	    1.00000	    0.00000	 63.0	 1	    1.06349	    0.93651;
	127	 1	 9.39	 1.50	 0.0	 0.0	 1	    1.00000	    0.00000	 63.0	 1	    1.04762	    0.95238;
	128	 1	 14.21	 7.60	 0.0	 0.0	 1	    1.01587	    0.00000	 63.0	 1	    1.06349	    0.96825;
	129	 1	 20.11	 11.80	 0.0	 0.0	 1	    1.01587	    0.00000	 63.0	 1	    1.06349	    0.96825;
	130	 1	 0.0	 0.0	 0.0	 0.0	 1	    1.04666	    0.00000	 225.0	 1	    1.08444	    1.00889;
	131	 1	 124.03	 13.60	 0.0	 0.0	 1	    1.04666	    0.00000	 225.0	 1	    1.08444	    1.00889;
	132	 2	 11.50	 0.00	 0.0	 0.0	 1	    1.00000	    0.00000	 90.0	 1	    1.07778	    0.92222;
	133	 1	 2.53	 0.50	 0.0	 0.0	 1	    1.00000	    0.00000	 63.0	 1	    1.04762	    0.95238;
	134	 1	 100.55	 23.60	 0.0	 0.0	 1	    1.04666	    0.00000	 225.0	 1	    1.08889	    1.00444;
	135	 1	 0.0	 0.0	 0.0	 0.0	 1	    1.04666	    0.00000	 225.0	 1	    1.08889	    1.00444;
	136	 1	 21.90	 -0.20	 0.0	 0.0	 1	    1.02778	    0.00000	 90.0	 1	    1.07778	    0.97778;
	137	 2	 9.60	 -4.40	 0.0	 0.0	 1	    1.01587	    0.00000	 63.0	 1	    1.06349	    0.96825;
	138	 1	 0.0	 0.0	 0.0	 0.0	 1	    1.02333	    0.00000	 150.0	 1	    1.08000	    0.96667;
	139	 1	 18.91	 2.20	 0.0	 0.0	 1	    1.00000	    0.00000	 63.0	 1	    1.07937	    0.92063;
	140	 1	 0.0	 0.0	 0.0	 80.0	 1	    1.04445	    0.00000	 225.0	 1	    1.08889	    1.00000;
	141	 1	 0.0	 0.0	 0.0	 0.0	 1	    1.07895	    0.00000	 380.0	 1	    1.10526	    1.05263;
	142	 1	 17.82	 5.80	 0.0	 0.0	 1	    1.01588	    0.00000	 63.0	 1	    1.07937	    0.95238;
	143	 1	 0.0	 0.0	 0.0	 0.0	 1	    1.03778	    0.00000	 225.0	 1	    1.08889	    0.98667;
	144	 1	 23.30	 -10.30	 0.0	 0.0	 1	    1.03333	    0.00000	 90.0	 1	    1.11111	    0.95556;
	145	 1	 33.24	 5.90	 0.0	 0.0	 1	    1.02889	    0.00000	 225.0	 1	    1.08889	    0.96889;
	146	 1	 0.0	 0.0	 0.0	 0.0	 1	    1.05263	    0.00000	 380.0	 1	    1.10526	    1.00000;
	147	 1	 34.92	 5.50	 0.0	 0.0	 1	    1.00000	    0.00000	 63.0	 1	    1.06349	    0.93651;
	148	 1	 8.07	 2.40	 0.0	 0.0	 1	    1.00000	    0.00000	 63.0	 1	    1.06349	    0.93651;
	149	 1	 21.55	 6.10	 0.0	 0.0	 1	    1.02222	    0.00000	 90.0	 1	    1.06667	    0.97778;
	150	 1	 53.59	 6.40	 0.0	 0.0	 1	    1.00000	    0.00000	 63.0	 1	    1.06349	    0.93651;
	151	 1	 0.0	 0.0	 0.0	 0.0	 1	    1.01587	    0.00000	 63.0	 1	    1.06349	    0.96825;
	152	 1	 46.12	 8.80	 0.0	 7.7	 1	    1.01587	    0.00000	 63.0	 1	    1.06349	    0.96825;
	153	 1	 23.20	 -2.60	 0.0	 0.0	 1	    1.00000	    0.00000	 63.0	 1	    1.06349	    0.93651;
	154	 1	 0.0	 0.0	 0.0	 0.0	 1	    1.01111	    0.00000	 225.0	 1	    1.08889	    0.93333;
	155	 2	 0.0	 0.0	 0.0	 0.0	 1	    1.00000	    0.00000	 63.0	 1	    1.07937	    0.92063;
	156	 1	 0.0	 0.0	 0.0	 0.0	 1	    1.01587	    0.00000	 63.0	 1	    1.06349	    0.96825;
	157	 1	 0.36	 3.10	 0.0	 0.0	 1	    0.94444	    0.00000	 45.0	 1	    1.00000	    0.88889;
	158	 2	 0.0	 0.0	 0.0	 0.0	 1	    0.94444	    0.00000	 45.0	 1	    1.00000	    0.88889;
	159	 1	 0.0	 0.0	 0.0	 0.0	 1	    1.00000	    0.00000	 63.0	 1	    1.06349	    0.93651;
	160	 1	 42.39	 5.60	 0.0	 0.0	 1	    0.98889	    0.00000	 225.0	 1	    1.08889	    0.88889;
	161	 1	 46.00	 8.70	 0.0	 0.0	 1	    0.98889	    0.00000	 225.0	 1	    1.08889	    0.88889;
	162	 1	 0.70	 -1.40	 0.0	 0.0	 1	    1.02222	    0.00000	 90.0	 1	    1.06667	    0.97778;
	163	 1	 0.0	 0.0	 0.0	 0.0	 1	    1.01588	    0.00000	 63.0	 1	    1.07937	    0.95238;
	164	 1	 0.0	 0.0	 0.0	 0.0	 1	    1.01588	    0.00000	 63.0	 1	    1.07937	    0.95238;
	165	 1	 20.11	 9.20	 0.0	 0.0	 1	    0.97500	    0.00000	 20.0	 1	    1.15000	    0.80000;
	166	 1	 12.16	 2.40	 0.0	 0.0	 1	    1.02222	    0.00000	 90.0	 1	    1.06667	    0.97778;
	167	 1	 16.38	 0.60	 0.0	 0.0	 1	    1.02222	    0.00000	 90.0	 1	    1.06667	    0.97778;
	168	 1	 0.0	 0.0	 0.0	 0.0	 1	    1.04444	    0.00000	 225.0	 1	    1.08444	    1.00444;
	169	 1	 10.80	 -1.00	 0.0	 0.0	 1	    1.02222	    0.00000	 90.0	 1	    1.06667	    0.97778;
	170	 1	 84.77	 11.60	 0.0	 0.0	 1	    1.02778	    0.00000	 90.0	 1	    1.07778	    0.97778;
	171	 1	 26.50	 -0.40	 0.0	 0.0	 1	    1.02778	    0.00000	 90.0	 1	    1.07778	    0.97778;
	172	 1	 0.0	 0.0	 0.0	 0.0	 1	    1.04666	    0.00000	 225.0	 1	    1.08889	    1.00444;
	173	 1	 33.36	 8.50	 0.0	 0.0	 1	    1.01111	    0.00000	 90.0	 1	    1.08889	    0.93333;
	174	 1	 57.08	 4.60	 0.0	 0.0	 1	    1.03333	    0.00000	 90.0	 1	    1.11111	    0.95556;
	175	 1	 0.0	 0.0	 0.0	 0.0	 1	    1.00000	    0.00000	 63.0	 1	    1.07937	    0.92063;
	176	 1	 0.0	 0.0	 0.0	 0.0	 1	    1.00000	    0.00000	 63.0	 1	    1.07937	    0.92063;
	177	 2	 0.0	 0.0	 0.0	 0.0	 1	    1.00000	    0.00000	 150.0	 1	    1.10000	    0.90000;
	178	 1	 0.0	 0.0	 0.0	 0.0	 1	    1.04666	    0.00000	 225.0	 1	    1.08889	    1.00444;
	179	 1	 0.0	 0.0	 0.0	 0.0	 1	    1.04666	    0.00000	 225.0	 1	    1.08889	    1.00444;
	180	 1	 0.0	 0.0	 0.0	 -32.0	 1	    0.97500	    0.00000	 20.0	 1	    1.15000	    0.80000;
	181	 1	 0.0	 0.0	 0.0	 -32.0	 1	    0.97500	    0.00000	 20.0	 1	    1.15000	    0.80000;
	182	 1	 0.0	 0.0	 0.0	 0.0	 1	    1.00000	    0.00000	 63.0	 1	    1.04762	    0.95238;
	183	 1	 0.0	 0.0	 0.0	 0.0	 1	    1.04666	    0.00000	 225.0	 1	    1.08889	    1.00444;
	184	 1	 12.90	 -4.60	 0.0	 0.0	 1	    1.00000	    0.00000	 63.0	 1	    1.07937	    0.92063;
	185	 1	 19.27	 3.10	 0.0	 0.0	 1	    1.00000	    0.00000	 63.0	 1	    1.06349	    0.93651;
	186	 1	 4.80	 -0.40	 0.0	 0.0	 1	    1.01588	    0.00000	 63.0	 1	    1.07937	    0.95238;
	187	 1	 6.02	 1.40	 0.0	 0.0	 1	    1.02778	    0.00000	 90.0	 1	    1.07778	    0.97778;
	188	 1	 34.56	 4.00	 0.0	 0.0	 1	    1.01588	    0.00000	 63.0	 1	    1.07937	    0.95238;
	189	 1	 1.32	 0.30	 0.0	 0.0	 1	    1.02222	    0.00000	 90.0	 1	    1.06667	    0.97778;
	190	 2	 0.0	 0.0	 0.0	 0.0	 1	    1.00000	    0.00000	 63.0	 1	    1.07937	    0.92063;
	191	 1	 19.51	 1.60	 0.0	 0.0	 1	    1.00000	    0.00000	 63.0	 1	    1.07937	    0.92063;
	192	 2	 0.0	 0.0	 0.0	 0.0	 1	    0.94444	    0.00000	 45.0	 1	    1.00000	    0.88889;
	193	 1	 13.80	 -0.30	 0.0	 0.0	 1	    1.02222	    0.00000	 90.0	 1	    1.06667	    0.97778;
	194	 1	 7.40	 -1.50	 0.0	 0.0	 1	    1.00000	    0.00000	 63.0	 1	    1.07937	    0.92063;
	195	 1	 9.51	 4.80	 0.0	 0.0	 1	    1.04666	    0.00000	 225.0	 1	    1.08889	    1.00444;
	196	 2	 1.00	 -0.30	 0.0	 0.0	 1	    1.00000	    0.00000	 63.0	 1	    1.07937	    0.92063;
	197	 1	 0.0	 0.0	 0.0	 0.0	 1	    1.02538	    0.00000	 63.0	 1	    1.09837	    0.95238;
	198	 1	 0.0	 0.0	 0.0	 0.0	 1	    1.02538	    0.00000	 63.0	 1	    1.09837	    0.95238;
	199	 1	 29.38	 1.20	 0.0	 0.0	 1	    1.00000	    0.00000	 63.0	 1	    1.07937	    0.92063;
	200	 1	 9.30	 -2.70	 0.0	 0.0	 1	    1.00000	    0.00000	 63.0	 1	    1.07937	    0.92063;
...
];

%% generator data
%	bus	Pg	Qg	Qmax	Qmin	Vg	mBase	status	Pmax	Pmin
mpc.gen = [
	4	 0.0	 0.0	 55.0	 -55.0	 1.01111	 100.0	 0	 110	 0.0; % NG
	4	 0.0	 0.0	 142.0	 -142.0	 1.01111	 100.0	 0	 284	 0.0; % NG
	5	 90.5	 0.0	 91.0	 -91.0	 1.00794	 100.0	 1	 181	 0.0; % COW
	11	 0.0	 0.0	 4.0	 -4.0	 1.0	 100.0	 0	 8	 0.0; % PEL
	11	 0.0	 0.0	 74.0	 -74.0	 1.0	 100.0	 0	 147	 0.0; % NG
	17	 79.5	 0.0	 80.0	 -80.0	 1.02222	 100.0	 1	 159	 0.0; % COW
	19	 0.0	 0.0	 11.0	 -11.0	 1.0	 100.0	 0	 22	 0.0; % NG
	22	 0.0	 0.0	 9.0	 -9.0	 1.01588	 100.0	 0	 17	 0.0; % PEL
	24	 0.0	 0.0	 34.0	 -34.0	 1.03333	 100.0	 0	 68	 0.0; % NG
	24	 91.5	 0.0	 92.0	 -92.0	 1.03333	 100.0	 1	 183	 0.0; % COW
	25	 162.0	 0.0	 162.0	 -162.0	 1.02222	 100.0	 1	 324	 0.0; % NG
	25	 0.0	 0.0	 21.0	 -21.0	 1.02222	 100.0	 0	 41	 0.0; % NG
	40	 0.0	 0.0	 12.0	 -12.0	 1.02778	 100.0	 0	 24	 0.0; % NG
	47	 145.5	 0.0	 146.0	 -146.0	 1.0	 100.0	 1	 291	 0.0; % NG
	47	 0.0	 -1.81	 72.0	 -72.0	 1.0	 100.0	 0	 144	 0.0; % NG
	48	 35.5	 0.0	 36.0	 -36.0	 1.0	 100.0	 1	 71	 0.0; % PEL
	48	 84.0	 0.0	 84.0	 -84.0	 1.0	 100.0	 1	 168	 0.0; % NG
	57	 96.0	 0.0	 96.0	 -96.0	 1.0	 100.0	 1	 192	 0.0; % NG
	64	 0.0	 0.0	 17.0	 -17.0	 0.98889	 100.0	 0	 33	 0.0; % PEL
	64	 230.5	 0.0	 231.0	 -231.0	 0.98889	 100.0	 1	 461	 0.0; % NG
	69	 50.0	 0.0	 50.0	 -50.0	 1.00794	 100.0	 1	 100	 0.0; % NG
	70	 39.0	 0.0	 39.0	 -39.0	 1.01588	 100.0	 1	 78	 0.0; % PEL
	85	 0.0	 0.0	 10.0	 -10.0	 1.0	 100.0	 0	 19	 0.0; % NG
	86	 114.0	 0.0	 114.0	 -114.0	 1.02222	 100.0	 1	 228	 0.0; % COW
	102	 180.5	 0.0	 309.6	 -309.6	 1.01588	 100.0	 1	 361	 0.0; % NG
	122	 114.0	 0.0	 114.0	 -114.0	 1.01588	 100.0	 1	 228	 0.0; % PEL
	124	 124.0	 0.0	 124.0	 -124.0	 1.02222	 100.0	 1	 248	 0.0; % NG
	125	 77.5	 0.0	 78.0	 -78.0	 1.01588	 100.0	 1	 155	 0.0; % PEL
	125	 19.0	 0.0	 21.6	 -21.6	 1.01588	 100.0	 1	 38	 0.0; % PEL
	132	 61.5	 0.0	 80.4	 -80.4	 1.0	 100.0	 1	 123	 0.0; % NG
	132	 0.0	 1.0	 35.0	 -35.0	 1.0	 100.0	 0	 70	 0.0; % PEL
	132	 0.0	 1.99	 25.0	 -25.0	 1.0	 100.0	 0	 49	 0.0; % COW
	132	 0.0	 1.99	 167.0	 -167.0	 1.0	 100.0	 0	 334	 0.0; % NG
	137	 0.0	 -0.57	 9.0	 -9.0	 1.01587	 100.0	 0	 17	 0.0; % NG
	137	 60.5	 0.0	 61.0	 -61.0	 1.01587	 100.0	 1	 121	 0.0; % PEL
	155	 0.0	 -1.75	 68.0	 -68.0	 1.0	 100.0	 0	 136	 0.0; % NG
	158	 61.5	 0.0	 62.0	 -62.0	 0.94444	 100.0	 1	 123	 0.0; % PEL
	158	 0.0	 -2.57	 17.0	 -17.0	 0.94444	 100.0	 0	 34	 0.0; % PEL
	177	 0.0	 -1.56	 13.0	 -13.0	 1.0	 100.0	 0	 26	 0.0; % PEL
	190	 0.0	 -1.41	 65.0	 -65.0	 1.0	 100.0	 0	 130	 0.0; % NG
	190	 0.0	 -1.41	 79.0	 -79.0	 1.0	 100.0	 0	 157	 0.0; % NG
	192	 0.0	 -2.63	 14.0	 -14.0	 0.94444	 100.0	 0	 5	 0.0; % NG
	194	 0.0	 0.0	 39.0	 -39.0	 1.0	 100.0	 0	 77	 0.0; % NG
	196	 60.5	 0.0	 61.0	 -61.0	 1.0	 100.0	 1	 121	 0.0; % NG
	196	 101.5	 0.0	 102.0	 -102.0	 1.0	 100.0	 1	 203	 0.0; % COW
	219	 188.5	 0.0	 189.0	 -189.0	 1.02222	 100.0	 1	 377	 0.0; % NG
	226	 0.0	 0.0	 13.0	 -13.0	 1.0	 100.0	 0	 25	 0.0; % PEL
	229	 115.5	 0.0	 116.0	 -116.0	 1.00794	 100.0	 1	 231	 0.0; % PEL
	238	 137.5	 0.0	 138.0	 -138.0	 1.0	 100.0	 1	 275	 0.0; % NG
	238	 101.0	 0.0	 101.0	 -101.0	 1.0	 100.0	 1	 202	 0.0; % NG
	240	 0.0	 0.0	 0.0	 0.0	 1.02222	 100.0	 0	 0	 0.0; % PEL
	240	 44.0	 0.0	 44.0	 -44.0	 1.02222	 100.0	 1	 88	 0.0; % PEL
	248	 0.0	 0.0	 15.0	 -15.0	 1.0	 100.0	 0	 29	 0.0; % PEL
	248	 0.0	 -2.77	 17.0	 -17.0	 1.0	 100.0	 0	 34	 0.0; % PEL
	248	 0.0	 -2.77	 22.0	 -22.0	 1.0	 100.0	 0	 44	 0.0; % PEL
	248	 0.0	 -2.77	 21.0	 -21.0	 1.0	 100.0	 0	 42	 0.0; % NG
	258	 0.0	 -1.94	 10.0	 -10.0	 1.0	 100.0	 0	 14	 0.0; % PEL
	258	 0.0	 0.23	 106.0	 -106.0	 1.0	 100.0	 0	 211	 0.0; % NG
	260	 44.5	 0.0	 45.0	 -45.0	 1.0	 100.0	 1	 89	 0.0; % PEL
	263	 43.5	 0.0	 44.0	 -44.0	 1.0	 100.0	 1	 87	 0.0; % PEL
	271	 0.0	 0.0	 39.0	 -39.0	 1.0	 100.0	 0	 77	 0.0; % COW
	284	 0.0	 -2.78	 10.0	 -10.0	 1.0	 100.0	 0	 19	 0.0; % PEL
	297	 0.0	 0.0	 171.0	 -171.0	 0.98889	 100.0	 0	 341	 0.0; % COW
	298	 0.0	 0.0	 40.0	 -40.0	 1.01588	 100.0	 0	 80	 0.0; % COW
	307	 100.5	 0.0	 101.0	 -101.0	 1.0	 100.0	 1	 201	 0.0; % NG
	314	 80.5	 0.0	 91.2	 -91.2	 1.0	 100.0	 1	 161	 0.0; % COW
	314	 75.5	 0.0	 91.2	 -91.2	 1.0	 100.0	 1	 151	 0.0; % NG
	319	 0.0	 0.0	 0.0	 0.0	 1.0	 100.0	 0	 0	 -7.0; % SYNC
	319	 0.0	 0.0	 0.0	 0.0	 1.0	 100.0	 0	 0	 -7.0; % SYNC
	321	 85.0	 0.0	 85.0	 -85.0	 1.0	 100.0	 1	 170	 0.0; % NG
	327	 0.0	 -0.57	 122.0	 -122.0	 1.0	 100.0	 0	 243	 0.0; % NG
	334	 0.0	 0.13	 13.0	 -9.0	 1.01587	 100.0	 0	 5	 0.0; % PEL
	335	 93.0	 0.0	 168.0	 -168.0	 1.02333	 100.0	 1	 186	 0.0; % PEL
	338	 26.0	 0.0	 70.8	 -70.8	 1.0	 100.0	 1	 52	 0.0; % PEL
	340	 0.0	 -1.82	 28.0	 -28.0	 1.0	 100.0	 0	 56	 0.0; % PEL
	340	 0.0	 -0.1	 11.0	 -11.0	 1.0	 100.0	 0	 22	 0.0; % PEL
	347	 0.0	 0.0	 41.0	 -41.0	 1.02778	 100.0	 0	 82	 0.0; % PEL
	347	 31.0	 0.0	 31.0	 -31.0	 1.02778	 100.0	 1	 62	 0.0; % PEL
	350	 0.0	 0.0	 2.0	 -2.0	 1.02222	 100.0	 0	 4	 0.0; % PEL
	358	 0.0	 1.84	 42.0	 -42.0	 1.0	 100.0	 0	 84	 0.0; % NG
	359	 39.5	 0.0	 40.0	 -40.0	 1.01588	 100.0	 1	 79	 0.0; % PEL
	359	 92.0	 0.0	 92.0	 -92.0	 1.01588	 100.0	 1	 184	 0.0; % COW
	366	 393.5	 0.0	 394.0	 -394.0	 1.04666	 100.0	 1	 787	 0.0; % NG
	393	 0.0	 0.0	 2.0	 -2.0	 1.0	 100.0	 0	 3	 0.0; % PEL
	412	 94.0	 0.0	 94.0	 -94.0	 1.02222	 100.0	 1	 188	 0.0; % COW
	412	 153.5	 0.0	 154.0	 -154.0	 1.02222	 100.0	 1	 307	 0.0; % NG
	432	 0.0	 0.0	 11.0	 -11.0	 1.0	 100.0	 0	 21	 0.0; % NG
	441	 0.0	 1.33	 96.0	 -96.0	 1.0	 100.0	 0	 192	 0.0; % COW
	448	 0.0	 0.71	 44.0	 -44.0	 1.01587	 100.0	 0	 87	 0.0; % PEL
	463	 0.0	 0.0	 7.0	 -7.0	 1.00794	 100.0	 0	 13	 0.0; % PEL
	463	 61.0	 0.0	 61.0	 -61.0	 1.00794	 100.0	 1	 122	 0.0; % NG
	465	 25.25	 0.0	 25.0	 -25.0	 0.98556	 100.0	 1	 50	 0.5; % COW
	465	 16.75	 0.0	 17.0	 -17.0	 0.98556	 100.0	 1	 33	 0.5; % COW
	467	 195.25	 0.0	 195.0	 -195.0	 1.00794	 100.0	 1	 390	 0.5; % NG
	471	 0.0	 -2.86	 70.0	 -70.0	 1.0	 100.0	 0	 139	 0.0; % NG
	471	 0.0	 -5.4	 18.0	 -18.0	 1.0	 100.0	 0	 36	 0.0; % NG
	480	 0.0	 -2.66	 28.0	 -28.0	 1.0	 100.0	 0	 55	 0.0; % NG
	480	 0.0	 -2.66	 17.0	 -16.0	 1.0	 100.0	 0	 1	 0.0; % PEL
	480	 0.0	 -2.66	 74.0	 -74.0	 1.0	 100.0	 0	 148	 0.0; % NG
	492	 0.0	 -0.74	 50.0	 -50.0	 1.03333	 100.0	 0	 100	 0.0; % PEL
	509	 0.0	 0.34	 84.0	 -84.0	 1.0	 100.0	 0	 168	 0.0; % NG
	518	 0.0	 0.0	 30.0	 -30.0	 1.01587	 100.0	 0	 60	 0.0; % NG
	519	 68.0	 0.0	 68.0	 -68.0	 1.02222	 100.0	 1	 136	 0.0; % COW
	529	 0.0	 -1.62	 92.0	 -92.0	 1.0	 100.0	 0	 184	 0.0; % NG
	529	 0.0	 -1.62	 27.0	 -27.0	 1.0	 100.0	 0	 54	 0.0; % PEL
	529	 131.0	 0.0	 131.0	 -131.0	 1.0	 100.0	 1	 262	 0.0; % PEL
	535	 175.5	 0.0	 176.0	 -176.0	 1.02222	 100.0	 1	 351	 0.0; % COW
	535	 48.5	 0.0	 49.0	 -49.0	 1.02222	 100.0	 1	 97	 0.0; % NG
	544	 22.5	 0.0	 23.0	 -23.0	 1.0	 100.0	 1	 45	 0.0; % NG
	547	 0.0	 0.0	 29.0	 -29.0	 1.0	 100.0	 0	 57	 0.0; % NG
	569	 15.5	 0.0	 16.0	 -16.0	 1.01588	 100.0	 1	 31	 0.0; % NG
	569	 27.0	 0.0	 27.0	 -27.0	 1.01588	 100.0	 1	 54	 0.0; % NG
	569	 15.5	 0.0	 16.0	 -16.0	 1.01588	 100.0	 1	 31	 0.0; % PEL
	582	 187.5	 0.0	 188.0	 -188.0	 1.0	 100.0	 1	 375	 0.0; % COW
	584	 37.5	 0.0	 43.2	 -43.2	 1.01588	 100.0	 1	 75	 0.0; % NG
	585	 38.0	 0.0	 38.0	 -38.0	 1.0	 100.0	 1	 76	 0.0; % NG
	588	 0.0	 0.1	 35.0	 -35.0	 1.0	 100.0	 0	 70	 0.0; % NG
	592	 0.0	 0.82	 10.0	 -10.0	 1.0	 100.0	 0	 6	 0.0; % NG
	599	 0.0	 0.03	 18.0	 -18.0	 1.01587	 100.0	 0	 36	 0.0; % NG
	609	 95.0	 0.0	 95.0	 -95.0	 0.975	 100.0	 1	 190	 0.0; % NG
	609	 0.0	 -1.04	 45.0	 -45.0	 0.975	 100.0	 0	 59	 0.0; % NG
	611	 29.5	 0.0	 30.0	 -30.0	 1.02222	 100.0	 1	 59	 0.0; % PEL
	611	 41.5	 0.0	 42.0	 -42.0	 1.02222	 100.0	 1	 83	 0.0; % COW
	611	 88.0	 0.0	 88.0	 -88.0	 1.02222	 100.0	 1	 176	 0.0; % NG
	612	 146.0	 0.0	 146.0	 -146.0	 1.0	 100.0	 1	 292	 0.0; % NG
	612	 0.0	 0.0	 26.0	 -26.0	 1.0	 100.0	 0	 51	 0.0; % NG
	623	 80.35	 0.0	 128.4	 -128.4	 1.01111	 100.0	 1	 169	 -8.3; % NG
	632	 0.0	 2.76	 100.0	 -100.0	 1.0	 100.0	 0	 199	 0.0; % NG
	635	 0.0	 0.91	 17.0	 -17.0	 1.01587	 100.0	 0	 33	 0.0; % NG
	635	 45.0	 0.0	 45.0	 -45.0	 1.01587	 100.0	 1	 90	 0.0; % NG
	640	 148.0	 0.0	 148.0	 -148.0	 1.07895	 100.0	 1	 296	 0.0; % COW
	651	 0.0	 1.38	 214.0	 -214.0	 1.0	 100.0	 0	 428	 0.0; % NG
	669	 67.0	 0.0	 67.0	 -67.0	 1.02222	 100.0	 1	 134	 0.0; % NG
	669	 178.5	 0.0	 179.0	 -179.0	 1.02222	 100.0	 1	 357	 0.0; % COW
	670	 125.5	 0.0	 126.0	 -126.0	 1.02778	 100.0	 1	 251	 0.0; % NG
	670	 36.0	 0.0	 36.0	 -36.0	 1.02778	 100.0	 1	 72	 0.0; % NG
	678	 0.0	 0.0	 10.0	 -10.0	 1.02222	 100.0	 0	 19	 0.0; % PEL
	679	 44.0	 0.0	 44.0	 -44.0	 1.02222	 100.0	 1	 88	 0.0; % NG
	683	 27.5	 0.0	 28.0	 -28.0	 0.94444	 100.0	 1	 55	 0.0; % NG
	683	 10.0	 0.0	 10.0	 -10.0	 0.94444	 100.0	 1	 20	 0.0; % NG
	683	 0.0	 -2.58	 130.0	 -130.0	 0.94444	 100.0	 0	 260	 0.0; % COW
	683	 31.0	 0.0	 31.0	 -31.0	 0.94444	 100.0	 1	 62	 0.0; % NG
	694	 60.0	 0.0	 60.0	 -60.0	 1.02222	 100.0	 1	 120	 0.0; % NG
	694	 134.0	 0.0	 134.0	 -134.0	 1.02222	 100.0	 1	 268	 0.0; % NG
	694	 91.0	 0.0	 91.0	 -91.0	 1.02222	 100.0	 1	 182	 0.0; % PEL
	698	 35.0	 0.0	 35.0	 -35.0	 0.975	 100.0	 1	 70	 0.0; % NG
	698	 19.5	 0.0	 20.0	 -20.0	 0.975	 100.0	 1	 39	 0.0; % PEL
	697	 43.5	 0.0	 44.0	 -44.0	 0.975	 100.0	 1	 87	 0.0; % NG
	697	 45.0	 0.0	 45.0	 -45.0	 0.975	 100.0	 1	 90	 0.0; % PEL
	696	 26.0	 0.0	 26.0	 -26.0	 0.975	 100.0	 1	 52	 0.0; % NG
	696	 34.5	 0.0	 35.0	 -35.0	 0.975	 100.0	 1	 69	 0.0; % NG
	704	 11.5	 0.0	 12.0	 -12.0	 0.94444	 100.0	 1	 23	 0.0; % NG
	704	 26.0	 0.0	 26.0	 -26.0	 0.94444	 100.0	 1	 52	 0.0; % NG
	704	 9.5	 0.0	 10.0	 -10.0	 0.94444	 100.0	 1	 19	 0.0; % COW
	704	 0.0	 -2.66	 213.0	 -213.0	 0.94444	 100.0	 0	 425	 0.0; % COW
	731	 164.0	 0.0	 164.0	 -164.0	 1.02222	 100.0	 1	 328	 0.0; % COW
	732	 35.5	 0.0	 36.0	 -36.0	 1.0	 100.0	 1	 71	 0.0; % NG
	733	 35.0	 0.0	 35.0	 -35.0	 1.01588	 100.0	 1	 70	 0.0; % PEL
	733	 24.0	 0.0	 24.0	 -24.0	 1.01588	 100.0	 1	 48	 0.0; % COW
	735	 0.0	 0.0	 772.0	 -772.0	 1.0	 100.0	 0	 1544	 0.0; % COW
	735	 41.0	 0.0	 41.0	 -41.0	 1.0	 100.0	 1	 82	 0.0; % PEL
	736	 55.5	 0.0	 56.0	 -56.0	 1.0	 100.0	 1	 111	 0.0; % NG
	743	 44.5	 0.0	 45.0	 -45.0	 1.0	 100.0	 1	 89	 0.0; % NG
	743	 19.5	 0.0	 20.0	 -20.0	 1.0	 100.0	 1	 39	 0.0; % PEL
	744	 20.5	 0.0	 26.4	 -26.4	 1.0	 100.0	 1	 41	 0.0; % PEL
	745	 126.75	 0.0	 127.0	 -127.0	 1.02222	 100.0	 1	 253	 0.5; % NG
	750	 0.0	 -2.78	 10.0	 -10.0	 1.0	 100.0	 0	 19	 -5.0; % PEL
	757	 0.0	 1.81	 25.0	 -25.0	 0.98889	 100.0	 0	 50	 0.0; % PEL
	759	 0.0	 0.0	 23.0	 -23.0	 1.0	 100.0	 0	 46	 0.0; % NG
	760	 0.0	 0.0	 6.0	 -6.0	 1.0	 100.0	 0	 12	 0.0; % PEL
	759	 90.0	 0.0	 90.0	 -90.0	 1.0	 100.0	 1	 180	 0.0; % NG
	760	 64.5	 0.0	 65.0	 -65.0	 1.0	 100.0	 1	 129	 0.0; % PEL
	761	 0.0	 0.06	 19.0	 -19.0	 0.825	 100.0	 0	 37	 0.0; % PEL
	761	 8.0	 0.0	 10.8	 -10.8	 0.825	 100.0	 1	 16	 0.0; % NG
	761	 0.0	 0.16	 19.0	 -19.0	 0.825	 100.0	 0	 38	 0.0; % PEL
	761	 0.0	 0.11	 2.0	 -2.0	 0.825	 100.0	 0	 3	 0.0; % PEL
	765	 0.0	 0.0	 16.0	 -16.0	 1.01588	 100.0	 0	 31	 0.0; % NG
	765	 50.5	 0.0	 51.0	 -51.0	 1.01588	 100.0	 1	 101	 0.0; % PEL
	785	 0.0	 -0.29	 35.0	 -35.0	 0.975	 100.0	 0	 70	 0.0; % NG
	785	 0.0	 -0.29	 26.0	 -26.0	 0.975	 100.0	 0	 22	 0.0; % PEL
	786	 0.0	 -0.33	 122.0	 -122.0	 0.975	 100.0	 0	 243	 0.0; % NG
	800	 33.5	 0.0	 34.0	 -34.0	 0.975	 100.0	 1	 67	 0.0; % PEL
	800	 63.0	 0.0	 63.0	 -63.0	 0.975	 100.0	 1	 126	 0.0; % NG
	801	 24.0	 0.0	 24.0	 -24.0	 0.975	 100.0	 1	 48	 0.0; % COW
	801	 18.0	 0.0	 18.0	 -18.0	 0.975	 100.0	 1	 36	 0.0; % PEL
	802	 20.5	 0.0	 21.0	 -21.0	 0.975	 100.0	 1	 41	 0.0; % NG
	802	 27.5	 0.0	 28.0	 -28.0	 0.975	 100.0	 1	 55	 0.0; % PEL
	806	 166.0	 0.0	 166.0	 -166.0	 1.0	 100.0	 1	 332	 0.0; % NG
	814	 55.75	 0.0	 56.0	 -56.0	 1.01587	 100.0	 1	 111	 0.5; % PEL
	814	 0.0	 0.0	 15.0	 -15.0	 1.01587	 100.0	 0	 30	 0.5; % PEL
	815	 40.75	 0.0	 41.0	 -41.0	 1.01587	 100.0	 1	 81	 0.5; % COW
	815	 50.25	 0.0	 50.0	 -50.0	 1.01587	 100.0	 1	 100	 0.5; % PEL
	815	 93.75	 0.0	 94.0	 -94.0	 1.01587	 100.0	 1	 187	 0.5; % NG
	815	 61.75	 0.0	 62.0	 -62.0	 1.01587	 100.0	 1	 123	 0.5; % NG
	825	 0.0	 1.35	 47.0	 -47.0	 1.0	 100.0	 0	 93	 0.0; % NG
	825	 57.5	 0.0	 58.0	 -58.0	 1.0	 100.0	 1	 115	 0.0; % NG
	828	 0.0	 0.0	 10.0	 -10.0	 1.02222	 100.0	 0	 20	 0.0; % PEL
	829	 277.5	 0.0	 278.0	 -278.0	 1.0	 100.0	 1	 555	 0.0; % PEL
	830	 0.0	 -2.71	 31.0	 -31.0	 0.94444	 100.0	 0	 61	 0.0; % PEL
	832	 0.0	 1.34	 20.0	 -20.0	 1.0	 100.0	 0	 40	 0.0; % NG
...
];

%% generator cost data
%	2	startup	shutdown	n	c(n-1)	...	c0
mpc.gencost = [
	2	 0.0	 0.0	 3	   0.000000	  34.719101	   0.000000; % NG
	2	 0.0	 0.0	 3	   0.000000	  27.265118	   0.000000; % NG
	2	 0.0	 0.0	 3	   0.000000	  44.019985	   0.000000; % COW
	2	 0.0	 0.0	 3	   0.000000	 125.857376	   0.000000; % PEL
	2	 0.0	 0.0	 3	   0.000000	 112.274748	   0.000000; % NG
	2	 0.0	 0.0	 3	   0.000000	  16.070751	   0.000000; % COW
	2	 0.0	 0.0	 3	   0.000000	 119.380030	   0.000000; % NG
	2	 0.0	 0.0	 3	   0.000000	  97.079386	   0.000000; % PEL
	2	 0.0	 0.0	 3	   0.000000	  34.189962	   0.000000; % NG
	2	 0.0	 0.0	 3	   0.000000	 123.259097	   0.000000; % COW
	2	 0.0	 0.0	 3	   0.000000	 100.532072	   0.000000; % NG
	2	 0.0	 0.0	 3	   0.000000	  33.396400	   0.000000; % NG
	2	 0.0	 0.0	 3	   0.000000	  18.678889	   0.000000; % NG
	2	 0.0	 0.0	 3	   0.000000	  54.908293	   0.000000; % NG
	2	 0.0	 0.0	 3	   0.000000	  42.955047	   0.000000; % NG
	2	 0.0	 0.0	 3	   0.000000	  22.606677	   0.000000; % PEL
	2	 0.0	 0.0	 3	   0.000000	  31.523451	   0.000000; % NG
	2	 0.0	 0.0	 3	   0.000000	  39.638733	   0.000000; % NG
	2	 0.0	 0.0	 3	   0.000000	 117.834409	   0.000000; % PEL
	2	 0.0	 0.0	 3	   0.000000	  20.083247	   0.000000; % NG
	2	 0.0	 0.0	 3	   0.000000	  38.792247	   0.000000; % NG
	2	 0.0	 0.0	 3	   0.000000	 100.515196	   0.000000; % PEL
	2	 0.0	 0.0	 3	   0.000000	  23.151628	   0.000000; % NG
	2	 0.0	 0.0	 3	   0.000000	  29.074090	   0.000000; % COW
	2	 0.0	 0.0	 3	   0.000000	  24.793597	   0.000000; % NG
	2	 0.0	 0.0	 3	   0.000000	  27.357020	   0.000000; % PEL
	2	 0.0	 0.0	 3	   0.000000	 109.277329	   0.000000; % NG
	2	 0.0	 0.0	 3	   0.000000	  48.491471	   0.000000; % PEL
	2	 0.0	 0.0	 3	   0.000000	 115.919519	   0.000000; % PEL
	2	 0.0	 0.0	 3	   0.000000	  35.940816	   0.000000; % NG
	2	 0.0	 0.0	 3	   0.000000	  17.055135	   0.000000; % PEL
	2	 0.0	 0.0	 3	   0.000000	  17.788534	   0.000000; % COW
	2	 0.0	 0.0	 3	   0.000000	  25.292879	   0.000000; % NG
	2	 0.0	 0.0	 3	   0.000000	  53.056287	   0.000000; % NG
	2	 0.0	 0.0	 3	   0.000000	 117.368659	   0.000000; % PEL
	2	 0.0	 0.0	 3	   0.000000	  37.412142	   0.000000; % NG
	2	 0.0	 0.0	 3	   0.000000	  18.017630	   0.000000; % PEL
	2	 0.0	 0.0	 3	   0.000000	  85.173223	   0.000000; % PEL
	2	 0.0	 0.0	 3	   0.000000	  38.124945	   0.000000; % PEL
	2	 0.0	 0.0	 3	   0.000000	 121.165706	   0.000000; % NG
	2	 0.0	 0.0	 3	   0.000000	  31.841243	   0.000000; % NG
	2	 0.0	 0.0	 3	   0.000000	  31.416093	   0.000000; % NG
	2	 0.0	 0.0	 3	   0.000000	  89.218155	   0.000000; % NG
	2	 0.0	 0.0	 3	   0.000000	  40.960757	   0.000000; % NG
	2	 0.0	 0.0	 3	   0.000000	 119.606964	   0.000000; % COW
	2	 0.0	 0.0	 3	   0.000000	 118.028872	   0.000000; % NG
	2	 0.0	 0.0	 3	   0.000000	 128.292721	   0.000000; % PEL
	2	 0.0	 0.0	 3	   0.000000	  24.252739	   0.000000; % PEL
	2	 0.0	 0.0	 3	   0.000000	  26.604131	   0.000000; % NG
	2	 0.0	 0.0	 3	   0.000000	 112.053547	   0.000000; % NG
	2	 0.0	 0.0	 3	   0.000000	  28.695640	   0.000000; % PEL
	2	 0.0	 0.0	 3	   0.000000	 110.917974	   0.000000; % PEL
	2	 0.0	 0.0	 3	   0.000000	  98.578795	   0.000000; % PEL
	2	 0.0	 0.0	 3	   0.000000	  34.549157	   0.000000; % PEL
	2	 0.0	 0.0	 3	   0.000000	  24.612219	   0.000000; % PEL
	2	 0.0	 0.0	 3	   0.000000	  61.443741	   0.000000; % NG
	2	 0.0	 0.0	 3	   0.000000	  44.179175	   0.000000; % PEL
	2	 0.0	 0.0	 3	   0.000000	  36.208485	   0.000000; % NG
	2	 0.0	 0.0	 3	   0.000000	   1.662592	   0.000000; % PEL
	2	 0.0	 0.0	 3	   0.000000	  23.923511	   0.000000; % PEL
	2	 0.0	 0.0	 3	   0.000000	 126.105536	   0.000000; % COW
	2	 0.0	 0.0	 3	   0.000000	  44.572834	   0.000000; % PEL
	2	 0.0	 0.0	 3	   0.000000	  14.215485	   0.000000; % COW
	2	 0.0	 0.0	 3	   0.000000	  29.060489	   0.000000; % COW
	2	 0.0	 0.0	 3	   0.000000	  38.353876	   0.000000; % NG
	2	 0.0	 0.0	 3	   0.000000	  34.437419	   0.000000; % COW
	2	 0.0	 0.0	 3	   0.000000	  38.404293	   0.000000; % NG
	2	 0.0	 0.0	 3	   0.000000	   0.000000	   0.000000; % SYNC
	2	 0.0	 0.0	 3	   0.000000	   0.000000	   0.000000; % SYNC
	2	 0.0	 0.0	 3	   0.000000	  37.769362	   0.000000; % NG
	2	 0.0	 0.0	 3	   0.000000	  33.537122	   0.000000; % NG
	2	 0.0	 0.0	 3	   0.000000	 111.286591	   0.000000; % PEL
	2	 0.0	 0.0	 3	   0.000000	  23.822099	   0.000000; % PEL
	2	 0.0	 0.0	 3	   0.000000	  24.186204	   0.000000; % PEL
	2	 0.0	 0.0	 3	   0.000000	  19.176649	   0.000000; % PEL
	2	 0.0	 0.0	 3	   0.000000	 122.465506	   0.000000; % PEL
	2	 0.0	 0.0	 3	   0.000000	 106.703695	   0.000000; % PEL
	2	 0.0	 0.0	 3	   0.000000	 107.728291	   0.000000; % PEL
	2	 0.0	 0.0	 3	   0.000000	 115.467444	   0.000000; % PEL
	2	 0.0	 0.0	 3	   0.000000	  32.860206	   0.000000; % NG
	2	 0.0	 0.0	 3	   0.000000	  24.435021	   0.000000; % PEL
	2	 0.0	 0.0	 3	   0.000000	  23.746964	   0.000000; % COW
	2	 0.0	 0.0	 3	   0.000000	  13.628857	   0.000000; % NG
	2	 0.0	 0.0	 3	   0.000000	 116.967755	   0.000000; % PEL
	2	 0.0	 0.0	 3	   0.000000	  18.652095	   0.000000; % COW
	2	 0.0	 0.0	 3	   0.000000	 111.581812	   0.000000; % NG
	2	 0.0	 0.0	 3	   0.000000	  35.235955	   0.000000; % NG
	2	 0.0	 0.0	 3	   0.000000	  31.468556	   0.000000; % COW
	2	 0.0	 0.0	 3	   0.000000	  17.794314	   0.000000; % PEL
	2	 0.0	 0.0	 3	   0.000000	 105.683734	   0.000000; % PEL
	2	 0.0	 0.0	 3	   0.000000	  48.255781	   0.000000; % NG
	2	 0.0	 0.0	 3	   0.000000	  53.838414	   0.000000; % COW
	2	 0.0	 0.0	 3	   0.000000	  37.254685	   0.000000; % COW
	2	 0.0	 0.0	 3	   0.000000	  35.434555	   0.000000; % NG
	2	 0.0	 0.0	 3	   0.000000	  98.508658	   0.000000; % NG
	2	 0.0	 0.0	 3	   0.000000	  39.539658	   0.000000; % NG
	2	 0.0	 0.0	 3	   0.000000	 101.377381	   0.000000; % NG
	2	 0.0	 0.0	 3	   0.000000	 130.391311	   0.000000; % PEL
	2	 0.0	 0.0	 3	   0.000000	  38.239645	   0.000000; % NG
	2	 0.0	 0.0	 3	   0.000000	 107.473273	   0.000000; % PEL
	2	 0.0	 0.0	 3	   0.000000	 107.604090	   0.000000; % NG
	2	 0.0	 0.0	 3	   0.000000	 106.271036	   0.000000; % NG
	2	 0.0	 0.0	 3	   0.000000	  19.429866	   0.000000; % COW
	2	 0.0	 0.0	 3	   0.000000	  94.368814	   0.000000; % NG
	2	 0.0	 0.0	 3	   0.000000	  16.652288	   0.000000; % PEL
	2	 0.0	 0.0	 3	   0.000000	  24.600913	   0.000000; % PEL
	2	 0.0	 0.0	 3	   0.000000	  32.654925	   0.000000; % COW
	2	 0.0	 0.0	 3	   0.000000	 117.129387	   0.000000; % NG
	2	 0.0	 0.0	 3	   0.000000	  41.531880	   0.000000; % NG
	2	 0.0	 0.0	 3	   0.000000	  23.021147	   0.000000; % NG
	2	 0.0	 0.0	 3	   0.000000	 118.716028	   0.000000; % NG
	2	 0.0	 0.0	 3	   0.000000	  38.794253	   0.000000; % NG
	2	 0.0	 0.0	 3	   0.000000	  22.764542	   0.000000; % PEL
	2	 0.0	 0.0	 3	   0.000000	  46.058639	   0.000000; % COW
	2	 0.0	 0.0	 3	   0.000000	  47.141387	   0.000000; % NG
	2	 0.0	 0.0	 3	   0.000000	  34.299414	   0.000000; % NG
	2	 0.0	 0.0	 3	   0.000000	 122.796127	   0.000000; % NG
	2	 0.0	 0.0	 3	   0.000000	  28.249014	   0.000000; % NG
	2	 0.0	 0.0	 3	   0.000000	  37.079776	   0.000000; % NG
	2	 0.0	 0.0	 3	   0.000000	 105.250372	   0.000000; % NG
	2	 0.0	 0.0	 3	   0.000000	  37.195589	   0.000000; % NG
	2	 0.0	 0.0	 3	   0.000000	  46.853672	   0.000000; % PEL
	2	 0.0	 0.0	 3	   0.000000	  19.301367	   0.000000; % COW
	2	 0.0	 0.0	 3	   0.000000	  56.566140	   0.000000; % NG
	2	 0.0	 0.0	 3	   0.000000	  36.436204	   0.000000; % NG
	2	 0.0	 0.0	 3	   0.000000	  25.587332	   0.000000; % NG
	2	 0.0	 0.0	 3	   0.000000	  17.976528	   0.000000; % NG
	2	 0.0	 0.0	 3	   0.000000	  22.670915	   0.000000; % NG
	2	 0.0	 0.0	 3	   0.000000	   6.815549	   0.000000; % NG
	2	 0.0	 0.0	 3	   0.000000	  99.511273	   0.000000; % NG
	2	 0.0	 0.0	 3	   0.000000	  39.593521	   0.000000; % COW
	2	 0.0	 0.0	 3	   0.000000	  50.720267	   0.000000; % NG
	2	 0.0	 0.0	 3	   0.000000	  48.945291	   0.000000; % NG
	2	 0.0	 0.0	 3	   0.000000	  20.737080	   0.000000; % COW
	2	 0.0	 0.0	 3	   0.000000	  40.340923	   0.000000; % NG
	2	 0.0	 0.0	 3	   0.000000	  42.906874	   0.000000; % NG
	2	 0.0	 0.0	 3	   0.000000	 124.031387	   0.000000; % PEL
	2	 0.0	 0.0	 3	   0.000000	  24.544045	   0.000000; % NG
	2	 0.0	 0.0	 3	   0.000000	  33.300055	   0.000000; % NG
	2	 0.0	 0.0	 3	   0.000000	  33.258305	   0.000000; % NG
	2	 0.0	 0.0	 3	   0.000000	  30.190997	   0.000000; % COW
	2	 0.0	 0.0	 3	   0.000000	  24.450705	   0.000000; % NG
	2	 0.0	 0.0	 3	   0.000000	  29.794383	   0.000000; % NG
	2	 0.0	 0.0	 3	   0.000000	 119.788062	   0.000000; % NG
	2	 0.0	 0.0	 3	   0.000000	  47.330962	   0.000000; % PEL
	2	 0.0	 0.0	 3	   0.000000	 122.055981	   0.000000; % NG
	2	 0.0	 0.0	 3	   0.000000	  25.547072	   0.000000; % PEL
	2	 0.0	 0.0	 3	   0.000000	  54.728876	   0.000000; % NG
	2	 0.0	 0.0	 3	   0.000000	 127.485755	   0.000000; % PEL
	2	 0.0	 0.0	 3	   0.000000	 112.084227	   0.000000; % NG
	2	 0.0	 0.0	 3	   0.000000	  36.313139	   0.000000; % NG
	2	 0.0	 0.0	 3	   0.000000	 104.210828	   0.000000; % NG
	2	 0.0	 0.0	 3	   0.000000	  44.604391	   0.000000; % NG
	2	 0.0	 0.0	 3	   0.000000	  31.444437	   0.000000; % COW
	2	 0.0	 0.0	 3	   0.000000	   5.771394	   0.000000; % COW
	2	 0.0	 0.0	 3	   0.000000	  28.216057	   0.000000; % COW
	2	 0.0	 0.0	 3	   0.000000	  48.033731	   0.000000; % NG
	2	 0.0	 0.0	 3	   0.000000	  28.216850	   0.000000; % PEL
	2	 0.0	 0.0	 3	   0.000000	 117.390466	   0.000000; % COW
	2	 0.0	 0.0	 3	   0.000000	  21.537687	   0.000000; % COW
	2	 0.0	 0.0	 3	   0.000000	  32.394466	   0.000000; % PEL
	2	 0.0	 0.0	 3	   0.000000	  50.218830	   0.000000; % NG
	2	 0.0	 0.0	 3	   0.000000	  36.842194	   0.000000; % NG
	2	 0.0	 0.0	 3	   0.000000	  44.058422	   0.000000; % PEL
	2	 0.0	 0.0	 3	   0.000000	  40.551368	   0.000000; % PEL
	2	 0.0	 0.0	 3	   0.000000	  32.707886	   0.000000; % NG
	2	 0.0	 0.0	 3	   0.000000	  27.375807	   0.000000; % PEL
	2	 0.0	 0.0	 3	   0.000000	 105.687688	   0.000000; % PEL
	2	 0.0	 0.0	 3	   0.000000	 109.783294	   0.000000; % NG
	2	 0.0	 0.0	 3	   0.000000	 117.473966	   0.000000; % PEL
	2	 0.0	 0.0	 3	   0.000000	  36.049845	   0.000000; % NG
	2	 0.0	 0.0	 3	   0.000000	  28.661350	   0.000000; % PEL
	2	 0.0	 0.0	 3	   0.000000	 105.862811	   0.000000; % PEL
	2	 0.0	 0.0	 3	   0.000000	  42.187626	   0.000000; % NG
	2	 0.0	 0.0	 3	   0.000000	 104.030831	   0.000000; % PEL
	2	 0.0	 0.0	 3	   0.000000	 102.392307	   0.000000; % PEL
	2	 0.0	 0.0	 3	   0.000000	  97.926813	   0.000000; % NG
	2	 0.0	 0.0	 3	   0.000000	  29.165960	   0.000000; % PEL
	2	 0.0	 0.0	 3	   0.000000	  31.807188	   0.000000; % NG
	2	 0.0	 0.0	 3	   0.000000	  17.108732	   0.000000; % PEL
	2	 0.0	 0.0	 3	   0.000000	 100.937756	   0.000000; % NG
	2	 0.0	 0.0	 3	   0.000000	  33.764707	   0.000000; % PEL
	2	 0.0	 0.0	 3	   0.000000	  53.574396	   0.000000; % NG
	2	 0.0	 0.0	 3	   0.000000	  29.480994	   0.000000; % COW
	2	 0.0	 0.0	 3	   0.000000	  40.661678	   0.000000; % PEL
	2	 0.0	 0.0	 3	   0.000000	 122.879595	   0.000000; % NG
	2	 0.0	 0.0	 3	   0.000000	  41.468964	   0.000000; % PEL
	2	 0.0	 0.0	 3	   0.000000	  27.764040	   0.000000; % NG
	2	 0.0	 0.0	 3	   0.000000	  92.614130	   0.000000; % PEL
	2	 0.0	 0.0	 3	   0.000000	 107.769661	   0.000000; % PEL
	2	 0.0	 0.0	 3	   0.000000	  60.691391	   0.000000; % COW
	2	 0.0	 0.0	 3	   0.000000	  23.594703	   0.000000; % PEL
	2	 0.0	 0.0	 3	   0.000000	  35.610774	   0.000000; % NG
	2	 0.0	 0.0	 3	   0.000000	  21.473187	   0.000000; % NG
	2	 0.0	 0.0	 3	   0.000000	  38.395905	   0.000000; % NG
	2	 0.0	 0.0	 3	   0.000000	  25.701638	   0.000000; % NG
	2	 0.0	 0.0	 3	   0.000000	 109.084654	   0.000000; % PEL
	2	 0.0	 0.0	 3	   0.000000	  29.597860	   0.000000; % PEL
	2	 0.0	 0.0	 3	   0.000000	  29.066900	   0.000000; % PEL
	2	 0.0	 0.0	 3	   0.000000	  46.605613	   0.000000; % NG
...
];

%% branch data
%	fbus	tbus	r	x	b	rateA	rateB	rateC	ratio	angle	status	angmin	angmax
mpc.branch = [
	4644	 1	 0.005726	 0.010482	 0.0	 2186.0	 2186.0	 2186.0	 0.0	 0.0	 1	 -30.0	 30.0;
	5243	 1	 0.01284	 0.025679	 0.0	 910.0	 910.0	 910.0	 0.0	 0.0	 1	 -30.0	 30.0;
	1682	 2	 0.005799	 0.010615	 0.0075	 2441.0	 2441.0	 2441.0	 0.0	 0.0	 1	 -30.0	 30.0;
	1673	 3	 0.134039	 0.309398	 0.0035	 91.0	 91.0	 91.0	 0.0	 0.0	 1	 -30.0	 30.0;
	2302	 3	 0.049131	 0.133283	 0.0015	 215.0	 215.0	 215.0	 0.0	 0.0	 1	 -30.0	 30.0;
	694	 4	 0.025926	 0.109136	 0.0002	 281.0	 281.0	 281.0	 0.0	 0.0	 1	 -30.0	 30.0;
	3940	 4	 0.05	 0.126914	 0.0006	 226.0	 226.0	 226.0	 0.0	 0.0	 1	 -30.0	 30.0;
	5043	 4	 0.02321	 0.097407	 0.0016	 315.0	 315.0	 315.0	 0.0	 0.0	 1	 -30.0	 30.0;
	4414	 5	 0.040564	 0.113631	 0.0013	 245.0	 245.0	 245.0	 0.0	 0.0	 1	 -30.0	 30.0;
	2780	 6	 0.006047	 0.020912	 0.0222	 1398.0	 1398.0	 1398.0	 0.0	 0.0	 1	 -30.0	 30.0;
	2781	 7	 0.012472	 0.032099	 0.0061	 884.0	 884.0	 884.0	 0.0	 0.0	 1	 -30.0	 30.0;
	2468	 8	 0.002607	 0.017462	 0.0324	 540.0	 540.0	 540.0	 0.0	 0.0	 1	 -30.0	 30.0;
	471	 9	 0.053893	 0.14258	 0.0017	 194.0	 194.0	 194.0	 0.0	 0.0	 1	 -30.0	 30.0;
	11	 10	 0.000247	 0.001235	 0.0005	 24078.0	 24078.0	 24078.0	 0.0	 0.0	 1	 -30.0	 30.0;
	11	 10	 0.000247	 0.001235	 0.0002	 24078.0	 24078.0	 24078.0	 0.0	 0.0	 1	 -30.0	 30.0;
	30	 11	 0.039753	 0.100988	 0.0047	 284.0	 284.0	 284.0	 0.0	 0.0	 1	 -30.0	 30.0;
	2930	 11	 0.037654	 0.096173	 0.001	 294.0	 294.0	 294.0	 0.0	 0.0	 1	 -30.0	 30.0;
	2180	 12	 0.014613	 0.060721	 0.0008	 487.0	 487.0	 487.0	 0.0	 0.0	 1	 -30.0	 30.0;
	4018	 12	 0.034064	 0.121139	 0.0015	 242.0	 242.0	 242.0	 0.0	 0.0	 1	 -30.0	 30.0;
	4020	 12	 0.000242	 0.000442	 0.0004	 60355.0	 60355.0	 60355.0	 0.0	 0.0	 1	 -30.0	 30.0;
	115	 13	 2.1e-05	 0.000125	 0.1386	 737.0	 737.0	 737.0	 0.0	 0.0	 1	 -30.0	 30.0;
	2336	 13	 0.000145	 0.001877	 0.0635	 2487.0	 2487.0	 2487.0	 0.0	 0.0	 1	 -30.0	 30.0;
	4574	 13	 0.000319	 0.003234	 0.0838	 1841.0	 1841.0	 1841.0	 0.0	 0.0	 1	 -30.0	 30.0;
	116	 13	 2.1e-05	 0.000125	 0.1386	 737.0	 737.0	 737.0	 0.0	 0.0	 1	 -30.0	 30.0;
	1224	 14	 0.04	 0.134198	 0.0274	 217.0	 217.0	 217.0	 0.0	 0.0	 1	 -30.0	 30.0;
	2875	 14	 0.012222	 0.052346	 0.0026	 565.0	 565.0	 565.0	 0.0	 0.0	 1	 -30.0	 30.0;
	4592	 14	 0.007284	 0.045432	 0.0024	 660.0	 660.0	 660.0	 0.0	 0.0	 1	 -30.0	 30.0;
	4950	 14	 0.059963	 0.154222	 0.0236	 184.0	 184.0	 184.0	 0.0	 0.0	 1	 -30.0	 30.0;
	5229	 14	 0.018025	 0.110988	 0.0073	 270.0	 270.0	 270.0	 0.0	 0.0	 1	 -30.0	 30.0;
	2875	 14	 0.012222	 0.052593	 0.0032	 562.0	 562.0	 562.0	 0.0	 0.0	 1	 -30.0	 30.0;
	4592	 14	 0.007284	 0.044938	 0.0024	 667.0	 667.0	 667.0	 0.0	 0.0	 1	 -30.0	 30.0;
	2907	 15	 0.037541	 0.100529	 0.0011	 284.0	 284.0	 284.0	 0.0	 0.0	 1	 -30.0	 30.0;
	4126	 15	 0.090199	 0.211388	 0.0023	 133.0	 133.0	 133.0	 0.0	 0.0	 1	 -30.0	 30.0;
	4454	 15	 0.09801	 0.267574	 0.0	 107.0	 107.0	 107.0	 0.0	 0.0	 1	 -30.0	 30.0;
	251	 16	 0.071806	 0.191484	 0.0019	 149.0	 149.0	 149.0	 0.0	 0.0	 1	 -30.0	 30.0;
	339	 16	 0.119174	 0.284958	 0.0044	 99.0	 99.0	 99.0	 0.0	 0.0	 1	 -30.0	 30.0;
	5835	 17	 0.022346	 0.061111	 0.0029	 457.0	 457.0	 457.0	 0.0	 0.0	 1	 -30.0	 30.0;
	3728	 18	 0.009383	 0.019753	 0.0	 1194.0	 1194.0	 1194.0	 0.0	 0.0	 1	 -30.0	 30.0;
	5091	 19	 0.000252	 0.000504	 0.0	 52398.0	 52398.0	 52398.0	 0.0	 0.0	 1	 -30.0	 30.0;
	3728	 20	 0.001975	 0.004444	 0.0	 5369.0	 5369.0	 5369.0	 0.0	 0.0	 1	 -30.0	 30.0;
	1353	 21	 0.036296	 0.099012	 0.0045	 282.0	 282.0	 282.0	 0.0	 0.0	 1	 -30.0	 30.0;
	1598	 21	 0.032716	 0.089136	 0.0057	 313.0	 313.0	 313.0	 0.0	 0.0	 1	 -30.0	 30.0;
	1842	 22	 0.138574	 0.351474	 0.0058	 81.0	 81.0	 81.0	 0.0	 0.0	 1	 -30.0	 30.0;
	5020	 22	 0.094407	 0.210456	 0.0044	 132.0	 132.0	 132.0	 0.0	 0.0	 1	 -30.0	 30.0;
	1156	 23	 0.047115	 0.117158	 0.001	 234.0	 234.0	 234.0	 0.0	 0.0	 1	 -30.0	 30.0;
	2705	 23	 0.039557	 0.120937	 0.0132	 233.0	 233.0	 233.0	 0.0	 0.0	 1	 -30.0	 30.0;
	3425	 23	 0.022676	 0.062484	 0.0007	 445.0	 445.0	 445.0	 0.0	 0.0	 1	 -30.0	 30.0;
	144	 24	 0.064568	 0.16716	 0.0113	 180.0	 180.0	 180.0	 0.0	 0.0	 1	 -30.0	 30.0;
	1281	 24	 0.048605	 0.128481	 0.0062	 235.0	 235.0	 235.0	 0.0	 0.0	 1	 -30.0	 30.0;
	491	 25	 0.004815	 0.02963	 0.0016	 1048.0	 1048.0	 1048.0	 0.0	 0.0	 1	 -30.0	 30.0;
	2092	 25	 0.007309	 0.04463	 0.0073	 710.0	 710.0	 710.0	 0.0	 0.0	 1	 -30.0	 30.0;
	611	 26	 0.034321	 0.145802	 0.0073	 199.0	 199.0	 199.0	 0.0	 0.0	 1	 -30.0	 30.0;
	1865	 26	 0.004815	 0.009753	 0.0005	 2731.0	 2731.0	 2731.0	 0.0	 0.0	 1	 -30.0	 30.0;
	2604	 26	 0.049012	 0.133704	 0.0063	 209.0	 209.0	 209.0	 0.0	 0.0	 1	 -30.0	 30.0;
	2923	 26	 0.04642	 0.126543	 0.0058	 221.0	 221.0	 221.0	 0.0	 0.0	 1	 -30.0	 30.0;
	3339	 26	 0.046296	 0.125926	 0.006	 222.0	 222.0	 222.0	 0.0	 0.0	 1	 -30.0	 30.0;
	4629	 26	 0.053704	 0.136753	 0.0065	 203.0	 203.0	 203.0	 0.0	 0.0	 1	 -30.0	 30.0;
	2923	 26	 0.03358	 0.120988	 0.0062	 237.0	 237.0	 237.0	 0.0	 0.0	 1	 -30.0	 30.0;
	534	 27	 0.006163	 0.041067	 0.0759	 446.0	 446.0	 446.0	 0.0	 0.0	 1	 -30.0	 30.0;
	2349	 27	 0.000652	 0.004369	 0.0081	 558.0	 558.0	 558.0	 0.0	 0.0	 1	 -30.0	 30.0;
	2686	 28	 0.050945	 0.131922	 0.0015	 216.0	 216.0	 216.0	 0.0	 0.0	 1	 -30.0	 30.0;
	3893	 28	 0.058781	 0.149005	 0.0017	 190.0	 190.0	 190.0	 0.0	 0.0	 1	 -30.0	 30.0;
	2888	 29	 0.067019	 0.137566	 0.0037	 193.0	 193.0	 193.0	 0.0	 0.0	 1	 -30.0	 30.0;
	3321	 29	 0.032754	 0.088939	 0.0039	 312.0	 312.0	 312.0	 0.0	 0.0	 1	 -30.0	 30.0;
	3321	 29	 0.030184	 0.080096	 0.0053	 345.0	 345.0	 345.0	 0.0	 0.0	 1	 -30.0	 30.0;
	144	 30	 0.066049	 0.187778	 0.0099	 161.0	 161.0	 161.0	 0.0	 0.0	 1	 -30.0	 30.0;
	1553	 30	 0.065062	 0.133704	 0.0062	 212.0	 212.0	 212.0	 0.0	 0.0	 1	 -30.0	 30.0;
	4836	 30	 0.041728	 0.106049	 0.005	 281.0	 281.0	 281.0	 0.0	 0.0	 1	 -30.0	 30.0;
	150	 31	 0.009574	 0.03875	 0.0114	 740.0	 740.0	 740.0	 0.0	 0.0	 1	 -30.0	 30.0;
	3162	 31	 0.000171	 0.000313	 0.0002	 82782.0	 82782.0	 82782.0	 0.0	 0.0	 1	 -30.0	 30.0;
	3693	 31	 0.034266	 0.09423	 0.001	 295.0	 295.0	 295.0	 0.0	 0.0	 1	 -30.0	 30.0;
	4740	 31	 0.006803	 0.028219	 0.0	 1018.0	 1018.0	 1018.0	 0.0	 0.0	 1	 -30.0	 30.0;
	150	 31	 0.008566	 0.037541	 0.0121	 767.0	 767.0	 767.0	 0.0	 0.0	 1	 -30.0	 30.0;
	3730	 32	 0.009733	 0.034089	 0.0185	 902.0	 902.0	 902.0	 0.0	 0.0	 1	 -30.0	 30.0;
	368	 34	 0.000277	 0.002015	 0.003	 288.0	 288.0	 288.0	 0.0	 0.0	 1	 -30.0	 30.0;
	1016	 33	 0.00881	 0.033995	 0.0607	 289.0	 289.0	 289.0	 0.0	 0.0	 1	 -30.0	 30.0;
	1157	 33	 0.004642	 0.019832	 0.0354	 255.0	 255.0	 255.0	 0.0	 0.0	 1	 -30.0	 30.0;
	2582	 34	 0.008861	 0.03506	 0.0623	 288.0	 288.0	 288.0	 0.0	 0.0	 1	 -30.0	 30.0;
	2706	 34	 0.006993	 0.032869	 0.0557	 255.0	 255.0	 255.0	 0.0	 0.0	 1	 -30.0	 30.0;
	4745	 33	 0.002173	 0.008731	 0.0152	 3441.0	 3441.0	 3441.0	 0.0	 0.0	 1	 -30.0	 30.0;
	4853	 34	 0.00077	 0.003121	 0.0051	 9629.0	 9629.0	 9629.0	 0.0	 0.0	 1	 -30.0	 30.0;
	5670	 33	 0.004109	 0.016138	 0.0284	 288.0	 288.0	 288.0	 0.0	 0.0	 1	 -30.0	 30.0;
	370	 35	 8.3e-05	 0.000907	 0.0202	 1034.0	 1034.0	 1034.0	 0.0	 0.0	 1	 -30.0	 30.0;
	1108	 35	 0.000552	 0.006726	 0.0939	 1786.0	 1786.0	 1786.0	 0.0	 0.0	 1	 -30.0	 30.0;
	2149	 35	 0.000512	 0.008012	 0.2455	 2462.0	 2462.0	 2462.0	 0.0	 0.0	 1	 -30.0	 30.0;
	3135	 35	 0.001107	 0.00918	 0.1906	 1644.0	 1644.0	 1644.0	 0.0	 0.0	 1	 -30.0	 30.0;
	369	 36	 6.2e-05	 0.000741	 0.0173	 1095.0	 1095.0	 1095.0	 0.0	 0.0	 1	 -30.0	 30.0;
	2149	 35	 0.000512	 0.008019	 0.2455	 2462.0	 2462.0	 2462.0	 0.0	 0.0	 1	 -30.0	 30.0;
	2149	 36	 0.001153	 0.013123	 0.1841	 1433.0	 1433.0	 1433.0	 0.0	 0.0	 1	 -30.0	 30.0;
	5228	 37	 0.055933	 0.120685	 0.0013	 229.0	 229.0	 229.0	 0.0	 0.0	 1	 -30.0	 30.0;
	5514	 37	 0.039053	 0.084404	 0.001	 328.0	 328.0	 328.0	 0.0	 0.0	 1	 -30.0	 30.0;
	724	 38	 0.00252	 0.006551	 0.0001	 4462.0	 4462.0	 4462.0	 0.0	 0.0	 1	 -30.0	 30.0;
	1228	 39	 0.009877	 0.042222	 0.0021	 697.0	 697.0	 697.0	 0.0	 0.0	 1	 -30.0	 30.0;
	5809	 39	 0.024815	 0.063086	 0.0029	 446.0	 446.0	 446.0	 0.0	 0.0	 1	 -30.0	 30.0;
	1228	 39	 0.009877	 0.042222	 0.0021	 697.0	 697.0	 697.0	 0.0	 0.0	 1	 -30.0	 30.0;
	2250	 40	 0.056173	 0.142593	 0.0066	 198.0	 198.0	 198.0	 0.0	 0.0	 1	 -30.0	 30.0;
	4592	 40	 0.034444	 0.109012	 0.0076	 266.0	 266.0	 266.0	 0.0	 0.0	 1	 -30.0	 30.0;
	431	 41	 0.000158	 0.000672	 0.0719	 331.0	 331.0	 331.0	 0.0	 0.0	 1	 -30.0	 30.0;
	3954	 41	 4.5e-05	 8.9e-05	 0.002	 268.0	 268.0	 268.0	 0.0	 0.0	 1	 -30.0	 30.0;
	1482	 42	 0.01096	 0.020063	 0.009	 1465.0	 1465.0	 1465.0	 0.0	 0.0	 1	 -30.0	 30.0;
	2766	 42	 0.002268	 0.008818	 0.0099	 3678.0	 3678.0	 3678.0	 0.0	 0.0	 1	 -30.0	 30.0;
	2725	 43	 0.001481	 0.006296	 0.0039	 4689.0	 4689.0	 4689.0	 0.0	 0.0	 1	 -30.0	 30.0;
	3488	 44	 0.050617	 0.137012	 0.009	 203.0	 203.0	 203.0	 0.0	 0.0	 1	 -30.0	 30.0;
	4324	 44	 0.074326	 0.194507	 0.0021	 142.0	 142.0	 142.0	 0.0	 0.0	 1	 -30.0	 30.0;
	5094	 45	 0.000247	 0.000741	 0.0	 38027.0	 38027.0	 38027.0	 0.0	 0.0	 1	 -30.0	 30.0;
	1084	 46	 0.049131	 0.134039	 0.001	 207.0	 207.0	 207.0	 0.0	 0.0	 1	 -30.0	 30.0;
	2193	 46	 0.033258	 0.090955	 0.001	 305.0	 305.0	 305.0	 0.0	 0.0	 1	 -30.0	 30.0;
	3305	 46	 0.067437	 0.123442	 0.001	 210.0	 210.0	 210.0	 0.0	 0.0	 1	 -30.0	 30.0;
	1084	 47	 0.037289	 0.118166	 0.001	 239.0	 239.0	 239.0	 0.0	 0.0	 1	 -30.0	 30.0;
	5362	 48	 0.021358	 0.057037	 0.0005	 573.0	 573.0	 573.0	 0.0	 0.0	 1	 -30.0	 30.0;
	1222	 49	 0.071303	 0.180902	 0.0021	 152.0	 152.0	 152.0	 0.0	 0.0	 1	 -30.0	 30.0;
	2344	 49	 0.071554	 0.18191	 0.0021	 152.0	 152.0	 152.0	 0.0	 0.0	 1	 -30.0	 30.0;
	471	 50	 0.028193	 0.104535	 0.0013	 276.0	 276.0	 276.0	 0.0	 0.0	 1	 -30.0	 30.0;
	1676	 50	 0.055404	 0.171429	 0.01	 166.0	 166.0	 166.0	 0.0	 0.0	 1	 -30.0	 30.0;
	3554	 50	 0.010834	 0.071554	 0.001	 413.0	 413.0	 413.0	 0.0	 0.0	 1	 -30.0	 30.0;
	4626	 50	 0.013857	 0.030234	 0.0003	 897.0	 897.0	 897.0	 0.0	 0.0	 1	 -30.0	 30.0;
	3554	 50	 0.011414	 0.070648	 0.0009	 417.0	 417.0	 417.0	 0.0	 0.0	 1	 -30.0	 30.0;
	4626	 50	 0.013757	 0.030108	 0.0003	 901.0	 901.0	 901.0	 0.0	 0.0	 1	 -30.0	 30.0;
	1195	 51	 0.00478	 0.028622	 0.0547	 455.0	 455.0	 455.0	 0.0	 0.0	 1	 -30.0	 30.0;
	1196	 51	 0.00478	 0.028583	 0.0547	 455.0	 455.0	 455.0	 0.0	 0.0	 1	 -30.0	 30.0;
	166	 52	 0.01284	 0.032716	 0.0015	 846.0	 846.0	 846.0	 0.0	 0.0	 1	 -30.0	 30.0;
	5488	 52	 0.014198	 0.036049	 0.0016	 767.0	 767.0	 767.0	 0.0	 0.0	 1	 -30.0	 30.0;
	3349	 53	 0.005291	 0.021668	 0.0003	 1285.0	 1285.0	 1285.0	 0.0	 0.0	 1	 -30.0	 30.0;
	2770	 54	 0.01358	 0.047654	 0.0023	 600.0	 600.0	 600.0	 0.0	 0.0	 1	 -30.0	 30.0;
	375	 55	 0.000257	 0.000514	 0.0294	 53862.0	 53862.0	 53862.0	 0.0	 0.0	 1	 -30.0	 30.0;
	2695	 56	 0.000257	 0.002153	 0.2147	 452.0	 452.0	 452.0	 0.0	 0.0	 1	 -30.0	 30.0;
	3427	 56	 0.000277	 0.000869	 0.0931	 481.0	 481.0	 481.0	 0.0	 0.0	 1	 -30.0	 30.0;
	5095	 57	 0.000756	 0.00252	 0.0	 11560.0	 11560.0	 11560.0	 0.0	 0.0	 1	 -30.0	 30.0;
	3390	 58	 0.000237	 0.00083	 0.1863	 268.0	 268.0	 268.0	 0.0	 0.0	 1	 -30.0	 30.0;
	3566	 58	 0.000178	 0.000612	 0.1377	 268.0	 268.0	 268.0	 0.0	 0.0	 1	 -30.0	 30.0;
	142	 59	 0.030486	 0.076342	 0.002	 370.0	 370.0	 370.0	 0.0	 0.0	 1	 -30.0	 30.0;
	1652	 59	 0.011086	 0.024691	 0.0015	 1124.0	 1124.0	 1124.0	 0.0	 0.0	 1	 -30.0	 30.0;
	2478	 60	 0.044344	 0.170572	 0.0021	 173.0	 173.0	 173.0	 0.0	 0.0	 1	 -30.0	 30.0;
	3526	 60	 0.036709	 0.151776	 0.0017	 195.0	 195.0	 195.0	 0.0	 0.0	 1	 -30.0	 30.0;
	2227	 61	 0.017788	 0.048551	 0.0006	 589.0	 589.0	 589.0	 0.0	 0.0	 1	 -30.0	 30.0;
	2636	 61	 0.057521	 0.145251	 0.0017	 195.0	 195.0	 195.0	 0.0	 0.0	 1	 -30.0	 30.0;
	2047	 62	 0.014109	 0.057949	 0.0029	 510.0	 510.0	 510.0	 0.0	 0.0	 1	 -30.0	 30.0;
	2951	 62	 0.007055	 0.02973	 0.0014	 996.0	 996.0	 996.0	 0.0	 0.0	 1	 -30.0	 30.0;
	373	 63	 0.024263	 0.065911	 0.0007	 434.0	 434.0	 434.0	 0.0	 0.0	 1	 -30.0	 30.0;
	3082	 63	 0.020912	 0.059209	 0.0016	 485.0	 485.0	 485.0	 0.0	 0.0	 1	 -30.0	 30.0;
	145	 64	 0.002568	 0.011753	 0.0203	 424.0	 424.0	 424.0	 0.0	 0.0	 1	 -30.0	 30.0;
	5105	 64	 0.002568	 0.011615	 0.0228	 290.0	 290.0	 290.0	 0.0	 0.0	 1	 -30.0	 30.0;
	4604	 65	 0.006299	 0.033585	 0.0599	 891.0	 891.0	 891.0	 0.0	 0.0	 1	 -30.0	 30.0;
	4604	 65	 0.006299	 0.033661	 0.06	 889.0	 889.0	 889.0	 0.0	 0.0	 1	 -30.0	 30.0;
	1546	 66	 0.102293	 0.226757	 0.0025	 119.0	 119.0	 119.0	 0.0	 0.0	 1	 -30.0	 30.0;
	2291	 66	 0.177551	 0.405291	 0.0046	 67.0	 67.0	 67.0	 0.0	 0.0	 1	 -30.0	 30.0;
	3249	 66	 0.088264	 0.161566	 0.0017	 161.0	 161.0	 161.0	 0.0	 0.0	 1	 -30.0	 30.0;
	3031	 67	 0.007307	 0.014613	 0.0002	 1862.0	 1862.0	 1862.0	 0.0	 0.0	 1	 -30.0	 30.0;
	2193	 68	 0.043336	 0.11867	 0.001	 234.0	 234.0	 234.0	 0.0	 0.0	 1	 -30.0	 30.0;
	2884	 68	 0.067775	 0.139834	 0.001	 191.0	 191.0	 191.0	 0.0	 0.0	 1	 -30.0	 30.0;
	4534	 68	 0.047367	 0.16125	 0.0021	 176.0	 176.0	 176.0	 0.0	 0.0	 1	 -30.0	 30.0;
	5148	 68	 0.004031	 0.016629	 0.001	 1726.0	 1726.0	 1726.0	 0.0	 0.0	 1	 -30.0	 30.0;
	4607	 69	 0.073066	 0.205089	 0.0022	 136.0	 136.0	 136.0	 0.0	 0.0	 1	 -30.0	 30.0;
	5096	 70	 4.8e-05	 8.8e-05	 0.0001	 303410.0	 303410.0	 303410.0	 0.0	 0.0	 1	 -30.0	 30.0;
	2164	 71	 0.000252	 0.00252	 0.0008	 11313.0	 11313.0	 11313.0	 0.0	 0.0	 1	 -30.0	 30.0;
	3145	 71	 0.030738	 0.088687	 0.0169	 306.0	 306.0	 306.0	 0.0	 0.0	 1	 -30.0	 30.0;
	5097	 71	 0.006551	 0.016377	 0.0171	 1625.0	 1625.0	 1625.0	 0.0	 0.0	 1	 -30.0	 30.0;
	3145	 71	 0.025195	 0.07483	 0.0204	 363.0	 363.0	 363.0	 0.0	 0.0	 1	 -30.0	 30.0;
	3747	 72	 9.9e-05	 0.00077	 0.078	 379.0	 379.0	 379.0	 0.0	 0.0	 1	 -30.0	 30.0;
	3747	 73	 9.9e-05	 0.00077	 0.077	 379.0	 379.0	 379.0	 0.0	 0.0	 1	 -30.0	 30.0;
	5105	 74	 0.000514	 0.003437	 0.0061	 290.0	 290.0	 290.0	 0.0	 0.0	 1	 -30.0	 30.0;
	5125	 74	 0.005476	 0.036879	 0.1255	 522.0	 522.0	 522.0	 0.0	 0.0	 1	 -30.0	 30.0;
	145	 74	 0.000514	 0.003457	 0.0061	 418.0	 418.0	 418.0	 0.0	 0.0	 1	 -30.0	 30.0;
	4961	 75	 0.017531	 0.046914	 0.0023	 596.0	 596.0	 596.0	 0.0	 0.0	 1	 -30.0	 30.0;
	2083	 75	 0.005309	 0.014321	 0.0006	 1949.0	 1949.0	 1949.0	 0.0	 0.0	 1	 -30.0	 30.0;
	3083	 76	 0.003477	 0.01118	 0.0187	 304.0	 304.0	 304.0	 0.0	 0.0	 1	 -30.0	 30.0;
	3833	 76	 0.000612	 0.003121	 0.0152	 270.0	 270.0	 270.0	 0.0	 0.0	 1	 -30.0	 30.0;
	2343	 77	 0.013857	 0.035525	 0.0004	 775.0	 775.0	 775.0	 0.0	 0.0	 1	 -30.0	 30.0;
	242	 78	 0.002771	 0.008314	 0.0083	 3471.0	 3471.0	 3471.0	 0.0	 0.0	 1	 -30.0	 30.0;
	4559	 78	 0.000151	 0.000302	 0.0	 90076.0	 90076.0	 90076.0	 0.0	 0.0	 1	 -30.0	 30.0;
	629	 79	 0.010758	 0.02187	 0.0071	 1176.0	 1176.0	 1176.0	 0.0	 0.0	 1	 -30.0	 30.0;
	1870	 79	 0.003779	 0.014613	 0.0198	 1899.0	 1899.0	 1899.0	 0.0	 0.0	 1	 -30.0	 30.0;
	2411	 79	 0.008314	 0.017057	 0.024	 1510.0	 1510.0	 1510.0	 0.0	 0.0	 1	 -30.0	 30.0;
	4078	 79	 0.000252	 0.001764	 0.0043	 16079.0	 16079.0	 16079.0	 0.0	 0.0	 1	 -30.0	 30.0;
	629	 79	 0.010758	 0.02187	 0.0071	 1176.0	 1176.0	 1176.0	 0.0	 0.0	 1	 -30.0	 30.0;
	4077	 79	 0.000302	 0.001562	 0.0037	 18009.0	 18009.0	 18009.0	 0.0	 0.0	 1	 -30.0	 30.0;
	4079	 81	 2.4e-05	 0.000144	 0.0213	 701.0	 701.0	 701.0	 0.0	 0.0	 1	 -30.0	 30.0;
	4079	 80	 7.1e-05	 0.000162	 0.0162	 251.0	 251.0	 251.0	 0.0	 0.0	 1	 -30.0	 30.0;
	674	 82	 0.068027	 0.173091	 0.002	 159.0	 159.0	 159.0	 0.0	 0.0	 1	 -30.0	 30.0;
	797	 82	 0.027211	 0.068783	 0.001	 400.0	 400.0	 400.0	 0.0	 0.0	 1	 -30.0	 30.0;
	2072	 82	 0.03099	 0.202822	 0.002	 144.0	 144.0	 144.0	 0.0	 0.0	 1	 -30.0	 30.0;
	3485	 83	 0.000257	 0.001165	 0.002	 405.0	 405.0	 405.0	 0.0	 0.0	 1	 -30.0	 30.0;
	2128	 84	 0.045603	 0.11741	 0.001	 235.0	 235.0	 235.0	 0.0	 0.0	 1	 -30.0	 30.0;
	3803	 84	 0.008566	 0.024691	 0.0	 1130.0	 1130.0	 1130.0	 0.0	 0.0	 1	 -30.0	 30.0;
	5100	 85	 0.047317	 0.131595	 0.0015	 212.0	 212.0	 212.0	 0.0	 0.0	 1	 -30.0	 30.0;
	2810	 86	 0.040494	 0.128889	 0.0064	 220.0	 220.0	 220.0	 0.0	 0.0	 1	 -30.0	 30.0;
	3512	 86	 0.037778	 0.097037	 0.0045	 286.0	 286.0	 286.0	 0.0	 0.0	 1	 -30.0	 30.0;
	3772	 87	 0.032071	 0.058705	 0.0006	 455.0	 455.0	 455.0	 0.0	 0.0	 1	 -30.0	 30.0;
	4348	 87	 0.062887	 0.204157	 0.002	 143.0	 143.0	 143.0	 0.0	 0.0	 1	 -30.0	 30.0;
	3772	 87	 0.032026	 0.058624	 0.0006	 456.0	 456.0	 456.0	 0.0	 0.0	 1	 -30.0	 30.0;
	1617	 88	 0.075838	 0.224742	 0.0027	 125.0	 125.0	 125.0	 0.0	 0.0	 1	 -30.0	 30.0;
	1706	 88	 0.028471	 0.089695	 0.001	 314.0	 314.0	 314.0	 0.0	 0.0	 1	 -30.0	 30.0;
	3644	 88	 0.080373	 0.255732	 0.003	 111.0	 111.0	 111.0	 0.0	 0.0	 1	 -30.0	 30.0;
...